
 OpenBabel10082008492D

 25 26  0  0  1  0  0  0  0  0999 V2000
    0.1340   -1.5000    0.0000 C   0  0  0  0  0  0  0  0  0  0  0  0
    1.0000   -1.0000    0.0000 C   0  0  0  0  0  0  0  0  0  0  0  0
    1.0000   -0.0000    0.0000 N   0  3  0  0  0  0  0  0  0  0  0  0
    2.0000   -0.0000    0.0000 C   0  0  0  0  0  0  0  0  0  0  0  0
    1.0000    1.0000    0.0000 C   0  0  0  0  0  0  0  0  0  0  0  0
    0.1340    1.5000    0.0000 C   0  0  0  0  0  0  0  0  0  0  0  0
    0.0000    0.0000    0.0000 C   0  0  0  0  0  0  0  0  0  0  0  0
   -0.5000    0.8660    0.0000 C   0  0  0  0  0  0  0  0  0  0  0  0
   -1.5000    0.8660    0.0000 O   0  0  0  0  0  0  0  0  0  0  0  0
   -2.0000    1.7321    0.0000 C   0  0  0  0  0  0  0  0  0  0  0  0
   -1.5000    2.5981    0.0000 O   0  0  0  0  0  0  0  0  0  0  0  0
   -3.0000    1.7321    0.0000 C   0  0  3  0  0  0  0  0  0  0  0  0
   -3.0000    2.7321    0.0000 O   0  0  0  0  0  0  0  0  0  0  0  0
   -4.0000    1.7321    0.0000 C   0  0  0  0  0  0  0  0  0  0  0  0
   -4.5000    0.8660    0.0000 C   0  0  0  0  0  0  0  0  0  0  0  0
   -5.5000    0.8660    0.0000 C   0  0  0  0  0  0  0  0  0  0  0  0
   -6.0000    1.7321    0.0000 C   0  0  0  0  0  0  0  0  0  0  0  0
   -5.5000    2.5981    0.0000 C   0  0  0  0  0  0  0  0  0  0  0  0
   -4.5000    2.5981    0.0000 C   0  0  0  0  0  0  0  0  0  0  0  0
   -3.0000    0.7321    0.0000 C   0  0  0  0  0  0  0  0  0  0  0  0
   -2.1340    0.2321    0.0000 C   0  0  0  0  0  0  0  0  0  0  0  0
   -2.1340   -0.7679    0.0000 C   0  0  0  0  0  0  0  0  0  0  0  0
   -3.0000   -1.2679    0.0000 C   0  0  0  0  0  0  0  0  0  0  0  0
   -3.8660   -0.7679    0.0000 C   0  0  0  0  0  0  0  0  0  0  0  0
   -3.8660    0.2321    0.0000 C   0  0  0  0  0  0  0  0  0  0  0  0
  1  2  1  0  0  0  0
  2  3  1  0  0  0  0
  3  4  1  0  0  0  0
  3  5  1  0  0  0  0
  3  7  1  0  0  0  0
  5  6  1  0  0  0  0
  7  8  1  0  0  0  0
  8  9  1  0  0  0  0
  9 10  1  0  0  0  0
 10 11  2  0  0  0  0
 10 12  1  0  0  0  0
 12 13  1  0  0  0  0
 12 14  1  0  0  0  0
 12 20  1  0  0  0  0
 14 19  1  0  0  0  0
 14 15  2  0  0  0  0
 15 16  1  0  0  0  0
 16 17  2  0  0  0  0
 17 18  1  0  0  0  0
 18 19  2  0  0  0  0
 20 25  1  0  0  0  0
 20 21  1  0  0  0  0
 21 22  1  0  0  0  0
 22 23  1  0  0  0  0
 23 24  1  0  0  0  0
 24 25  1  0  0  0  0
M  CHG  1   3   1
M  END
$$$$

 OpenBabel10082008492D

 11 11  0  0  1  0  0  0  0  0999 V2000
   -2.5981   -1.5000    0.0000 C   0  0  0  0  0  0  0  0  0  0  0  0
   -1.7321   -2.0000    0.0000 C   0  0  3  0  0  0  0  0  0  0  0  0
   -1.7321   -3.0000    0.0000 N   0  0  0  0  0  0  0  0  0  0  0  0
   -0.8660   -1.5000    0.0000 C   0  0  3  0  0  0  0  0  0  0  0  0
   -0.0000   -2.0000    0.0000 O   0  0  0  0  0  0  0  0  0  0  0  0
   -0.8660   -0.5000    0.0000 C   0  0  0  0  0  0  0  0  0  0  0  0
   -1.7321   -0.0000    0.0000 C   0  0  0  0  0  0  0  0  0  0  0  0
   -1.7321    1.0000    0.0000 C   0  0  0  0  0  0  0  0  0  0  0  0
   -0.8660    1.5000    0.0000 C   0  0  0  0  0  0  0  0  0  0  0  0
   -0.0000    1.0000    0.0000 C   0  0  0  0  0  0  0  0  0  0  0  0
    0.0000   -0.0000    0.0000 C   0  0  0  0  0  0  0  0  0  0  0  0
  1  2  1  0  0  0  0
  2  3  1  0  0  0  0
  2  4  1  0  0  0  0
  4  5  1  0  0  0  0
  4  6  1  0  0  0  0
  6 11  1  0  0  0  0
  6  7  2  0  0  0  0
  7  8  1  0  0  0  0
  8  9  2  0  0  0  0
  9 10  1  0  0  0  0
 10 11  2  0  0  0  0
M  END
$$$$

 OpenBabel10082008492D

 13 13  0  0  1  0  0  0  0  0999 V2000
    2.0908    0.7247    0.0000 C   0  0  0  0  0  0  0  0  0  0  0  0
    1.1248    0.4659    0.0000 C   0  0  0  0  0  0  0  0  0  0  0  0
    0.8660   -0.5000    0.0000 C   0  0  0  0  0  0  0  0  0  0  0  0
    1.6594   -1.1088    0.0000 C   0  0  0  0  0  0  0  0  0  0  0  0
    2.5833   -0.7261    0.0000 C   0  0  0  0  0  0  0  0  0  0  0  0
    0.8660   -1.5000    0.0000 C   0  0  0  0  0  0  0  0  0  0  0  0
    1.7321   -2.0000    0.0000 O   0  0  0  0  0  0  0  0  0  0  0  0
    0.0000   -2.0000    0.0000 N   0  0  0  0  0  0  0  0  0  0  0  0
   -0.8660   -1.5000    0.0000 C   0  0  0  0  0  0  0  0  0  0  0  0
   -0.8660   -0.5000    0.0000 C   0  0  3  0  0  0  0  0  0  0  0  0
   -1.7321   -0.0000    0.0000 C   0  0  0  0  0  0  0  0  0  0  0  0
    0.0000   -0.0000    0.0000 C   0  0  0  0  0  0  0  0  0  0  0  0
   -0.0000    1.0000    0.0000 O   0  0  0  0  0  0  0  0  0  0  0  0
  1  2  1  0  0  0  0
  2  3  1  0  0  0  0
  3 12  1  0  0  0  0
  3  4  1  0  0  0  0
  3  6  1  0  0  0  0
  4  5  1  0  0  0  0
  6  7  2  0  0  0  0
  6  8  1  0  0  0  0
  8  9  1  0  0  0  0
  9 10  1  0  0  0  0
 10 11  1  0  0  0  0
 10 12  1  0  0  0  0
 12 13  2  0  0  0  0
M  END
$$$$

 OpenBabel10082008492D

 19 20  0  0  1  0  0  0  0  0999 V2000
    0.8660   -4.5000    0.0000 C   0  0  0  0  0  0  0  0  0  0  0  0
    1.7321   -4.0000    0.0000 N   0  0  0  0  0  0  0  0  0  0  0  0
    2.5981   -4.5000    0.0000 C   0  0  0  0  0  0  0  0  0  0  0  0
    1.7321   -3.0000    0.0000 C   0  0  0  0  0  0  0  0  0  0  0  0
    0.8660   -2.5000    0.0000 C   0  0  0  0  0  0  0  0  0  0  0  0
    0.8660   -1.5000    0.0000 C   0  0  3  0  0  0  0  0  0  0  0  0
    1.7321   -1.0000    0.0000 C   0  0  0  0  0  0  0  0  0  0  0  0
    1.7321   -0.0000    0.0000 C   0  0  0  0  0  0  0  0  0  0  0  0
    2.5981    0.5000    0.0000 C   0  0  0  0  0  0  0  0  0  0  0  0
    3.4641   -0.0000    0.0000 C   0  0  0  0  0  0  0  0  0  0  0  0
    4.3301    0.5000    0.0000 Br  0  0  0  0  0  0  0  0  0  0  0  0
    3.4641   -1.0000    0.0000 C   0  0  0  0  0  0  0  0  0  0  0  0
    2.5981   -1.5000    0.0000 C   0  0  0  0  0  0  0  0  0  0  0  0
   -0.0000   -1.0000    0.0000 C   0  0  0  0  0  0  0  0  0  0  0  0
   -0.8660   -1.5000    0.0000 C   0  0  0  0  0  0  0  0  0  0  0  0
   -1.7321   -1.0000    0.0000 C   0  0  0  0  0  0  0  0  0  0  0  0
   -1.7321    0.0000    0.0000 C   0  0  0  0  0  0  0  0  0  0  0  0
   -0.8660    0.5000    0.0000 C   0  0  0  0  0  0  0  0  0  0  0  0
    0.0000    0.0000    0.0000 N   0  0  0  0  0  0  0  0  0  0  0  0
  1  2  1  0  0  0  0
  2  3  1  0  0  0  0
  2  4  1  0  0  0  0
  4  5  1  0  0  0  0
  5  6  1  0  0  0  0
  6  7  1  0  0  0  0
  6 14  1  0  0  0  0
  7 13  1  0  0  0  0
  7  8  2  0  0  0  0
  8  9  1  0  0  0  0
  9 10  2  0  0  0  0
 10 11  1  0  0  0  0
 10 12  1  0  0  0  0
 12 13  2  0  0  0  0
 14 19  1  0  0  0  0
 14 15  2  0  0  0  0
 15 16  1  0  0  0  0
 16 17  2  0  0  0  0
 17 18  1  0  0  0  0
 18 19  2  0  0  0  0
M  END
$$$$

 OpenBabel10082008492D

 36 37  0  0  0  0  0  0  0  0999 V2000
    0.1340   -1.5000    0.0000 C   0  0  0  0  0  0  0  0  0  0  0  0
    1.0000   -1.0000    0.0000 C   0  0  0  0  0  0  0  0  0  0  0  0
    1.0000   -0.0000    0.0000 N   0  3  0  0  0  0  0  0  0  0  0  0
    2.0000   -0.0000    0.0000 C   0  0  0  0  0  0  0  0  0  0  0  0
    2.5000    0.8660    0.0000 C   0  0  0  0  0  0  0  0  0  0  0  0
    1.0000    1.0000    0.0000 C   0  0  0  0  0  0  0  0  0  0  0  0
    1.8660    1.5000    0.0000 C   0  0  0  0  0  0  0  0  0  0  0  0
    1.8660    2.5000    0.0000 N   0  0  0  0  0  0  0  0  0  0  0  0
    2.7321    3.0000    0.0000 C   0  0  0  0  0  0  0  0  0  0  0  0
    2.7321    4.0000    0.0000 O   0  0  0  0  0  0  0  0  0  0  0  0
    3.5981    2.5000    0.0000 C   0  0  0  0  0  0  0  0  0  0  0  0
    4.4641    3.0000    0.0000 O   0  0  0  0  0  0  0  0  0  0  0  0
    3.5981    1.5000    0.0000 N   0  0  0  0  0  0  0  0  0  0  0  0
    4.4641    1.0000    0.0000 C   0  0  0  0  0  0  0  0  0  0  0  0
    5.3301    1.5000    0.0000 C   0  0  0  0  0  0  0  0  0  0  0  0
    6.1962    1.0000    0.0000 N   0  3  0  0  0  0  0  0  0  0  0  0
    6.6962    1.8660    0.0000 C   0  0  0  0  0  0  0  0  0  0  0  0
    7.6962    1.8660    0.0000 C   0  0  0  0  0  0  0  0  0  0  0  0
    7.0622    0.5000    0.0000 C   0  0  0  0  0  0  0  0  0  0  0  0
    7.9282    1.0000    0.0000 C   0  0  0  0  0  0  0  0  0  0  0  0
    5.6962    0.1340    0.0000 C   0  0  0  0  0  0  0  0  0  0  0  0
    6.1962   -0.7321    0.0000 C   0  0  0  0  0  0  0  0  0  0  0  0
    5.6962   -1.5981    0.0000 C   0  0  0  0  0  0  0  0  0  0  0  0
    6.1962   -2.4641    0.0000 C   0  0  0  0  0  0  0  0  0  0  0  0
    7.1962   -2.4641    0.0000 C   0  0  0  0  0  0  0  0  0  0  0  0
    7.6962   -1.5981    0.0000 C   0  0  0  0  0  0  0  0  0  0  0  0
    7.1962   -0.7321    0.0000 C   0  0  0  0  0  0  0  0  0  0  0  0
    7.6962    0.1340    0.0000 Cl  0  0  0  0  0  0  0  0  0  0  0  0
    0.0000    0.0000    0.0000 C   0  0  0  0  0  0  0  0  0  0  0  0
   -0.5000    0.8660    0.0000 C   0  0  0  0  0  0  0  0  0  0  0  0
   -1.5000    0.8660    0.0000 C   0  0  0  0  0  0  0  0  0  0  0  0
   -2.0000    1.7321    0.0000 C   0  0  0  0  0  0  0  0  0  0  0  0
   -1.5000    2.5981    0.0000 C   0  0  0  0  0  0  0  0  0  0  0  0
   -0.5000    2.5981    0.0000 C   0  0  0  0  0  0  0  0  0  0  0  0
    0.0000    1.7321    0.0000 C   0  0  0  0  0  0  0  0  0  0  0  0
    1.0000    1.7321    0.0000 Cl  0  0  0  0  0  0  0  0  0  0  0  0
  1  2  1  0  0  0  0
  2  3  1  0  0  0  0
  3  4  1  0  0  0  0
  3  6  1  0  0  0  0
  3 29  1  0  0  0  0
  4  5  1  0  0  0  0
  6  7  1  0  0  0  0
  7  8  1  0  0  0  0
  8  9  1  0  0  0  0
  9 10  2  0  0  0  0
  9 11  1  0  0  0  0
 11 12  2  0  0  0  0
 11 13  1  0  0  0  0
 13 14  1  0  0  0  0
 14 15  1  0  0  0  0
 15 16  1  0  0  0  0
 16 17  1  0  0  0  0
 16 19  1  0  0  0  0
 16 21  1  0  0  0  0
 17 18  1  0  0  0  0
 19 20  1  0  0  0  0
 21 22  1  0  0  0  0
 22 27  1  0  0  0  0
 22 23  2  0  0  0  0
 23 24  1  0  0  0  0
 24 25  2  0  0  0  0
 25 26  1  0  0  0  0
 26 27  2  0  0  0  0
 27 28  1  0  0  0  0
 29 30  1  0  0  0  0
 30 35  1  0  0  0  0
 30 31  2  0  0  0  0
 31 32  1  0  0  0  0
 32 33  2  0  0  0  0
 33 34  1  0  0  0  0
 34 35  2  0  0  0  0
 35 36  1  0  0  0  0
M  CHG  2   3   1  16   1
M  END
$$$$

 OpenBabel10082008492D

 10  9  0  0  0  0  0  0  0  0999 V2000
    1.0000   -1.0000    0.0000 O   0  0  0  0  0  0  0  0  0  0  0  0
    1.0000    0.0000    0.0000 P   0  0  0  0  0  0  0  0  0  0  0  0
    2.0000    0.0000    0.0000 O   0  0  0  0  0  0  0  0  0  0  0  0
    1.0000    1.0000    0.0000 O   0  0  0  0  0  0  0  0  0  0  0  0
    0.0000    0.0000    0.0000 O   0  0  0  0  0  0  0  0  0  0  0  0
   -0.5000   -0.8660    0.0000 C   0  0  0  0  0  0  0  0  0  0  0  0
   -1.5000   -0.8660    0.0000 C   0  0  0  0  0  0  0  0  0  0  0  0
   -2.3660   -1.3660    0.0000 Cl  0  0  0  0  0  0  0  0  0  0  0  0
   -1.5000   -1.8660    0.0000 Cl  0  0  0  0  0  0  0  0  0  0  0  0
   -2.0000   -0.0000    0.0000 Cl  0  0  0  0  0  0  0  0  0  0  0  0
  1  2  2  0  0  0  0
  2  3  1  0  0  0  0
  2  4  1  0  0  0  0
  2  5  1  0  0  0  0
  5  6  1  0  0  0  0
  6  7  1  0  0  0  0
  7  8  1  0  0  0  0
  7  9  1  0  0  0  0
  7 10  1  0  0  0  0
M  END
$$$$

 OpenBabel10082008492D

 13 14  0  0  0  0  0  0  0  0999 V2000
    1.7321   -0.0000    0.0000 C   0  0  0  0  0  0  0  0  0  0  0  0
    0.8660   -0.5000    0.0000 C   0  0  0  0  0  0  0  0  0  0  0  0
    0.8660   -1.5000    0.0000 C   0  0  0  0  0  0  0  0  0  0  0  0
    0.0000   -2.0000    0.0000 C   0  0  0  0  0  0  0  0  0  0  0  0
    0.0000   -3.0000    0.0000 O   0  0  0  0  0  0  0  0  0  0  0  0
   -0.8660   -1.5000    0.0000 C   0  0  0  0  0  0  0  0  0  0  0  0
   -1.7321   -2.0000    0.0000 C   0  0  0  0  0  0  0  0  0  0  0  0
   -2.5981   -1.5000    0.0000 C   0  0  0  0  0  0  0  0  0  0  0  0
   -2.5981   -0.5000    0.0000 C   0  0  0  0  0  0  0  0  0  0  0  0
   -1.7321   -0.0000    0.0000 C   0  0  0  0  0  0  0  0  0  0  0  0
   -0.8660   -0.5000    0.0000 C   0  0  0  0  0  0  0  0  0  0  0  0
    0.0000   -0.0000    0.0000 C   0  0  0  0  0  0  0  0  0  0  0  0
   -0.0000    1.0000    0.0000 O   0  0  0  0  0  0  0  0  0  0  0  0
  1  2  1  0  0  0  0
  2 12  1  0  0  0  0
  2  3  2  0  0  0  0
  3  4  1  0  0  0  0
  4  5  2  0  0  0  0
  4  6  1  0  0  0  0
  6 11  1  0  0  0  0
  6  7  2  0  0  0  0
  7  8  1  0  0  0  0
  8  9  2  0  0  0  0
  9 10  1  0  0  0  0
 10 11  2  0  0  0  0
 11 12  1  0  0  0  0
 12 13  2  0  0  0  0
M  END
$$$$

 OpenBabel10082008492D

 16 12  0  0  0  0  0  0  0  0999 V2000
    4.0000   -3.7321    0.0000 O   0  0  0  0  0  0  0  0  0  0  0  0
    4.5000   -2.8660    0.0000 C   0  0  0  0  0  0  0  0  0  0  0  0
    5.5000   -2.8660    0.0000 O   0  5  0  0  0  0  0  0  0  0  0  0
    4.0000   -2.0000    0.0000 C   0  0  0  0  0  0  0  0  0  0  0  0
    3.0000   -2.0000    0.0000 C   0  0  0  0  0  0  0  0  0  0  0  0
    3.0000   -3.0000    0.0000 O   0  0  0  0  0  0  0  0  0  0  0  0
    2.0000   -2.0000    0.0000 C   0  0  0  0  0  0  0  0  0  0  0  0
    1.5000   -2.8660    0.0000 C   0  0  0  0  0  0  0  0  0  0  0  0
    2.0000   -3.7321    0.0000 O   0  0  0  0  0  0  0  0  0  0  0  0
    0.5000   -2.8660    0.0000 O   0  5  0  0  0  0  0  0  0  0  0  0
    3.0000   -1.0000    0.0000 C   0  0  0  0  0  0  0  0  0  0  0  0
    2.1340   -0.5000    0.0000 O   0  0  0  0  0  0  0  0  0  0  0  0
    3.8660   -0.5000    0.0000 O   0  5  0  0  0  0  0  0  0  0  0  0
   -2.9040   -0.7952    0.0000 Li  0  3  0  0  0 15  0  0  0  0  0  0
    6.5000   -0.5000    0.0000 Li  0  3  0  0  0 15  0  0  0  0  0  0
    0.5000   -4.7321    0.0000 Li  0  3  0  0  0 15  0  0  0  0  0  0
  1  2  2  0  0  0  0
  2  3  1  0  0  0  0
  2  4  1  0  0  0  0
  4  5  1  0  0  0  0
  5  6  1  0  0  0  0
  5  7  1  0  0  0  0
  5 11  1  0  0  0  0
  7  8  1  0  0  0  0
  8  9  2  0  0  0  0
  8 10  1  0  0  0  0
 11 12  2  0  0  0  0
 11 13  1  0  0  0  0
M  CHG  6   3  -1  10  -1  13  -1  14   1  15   1  16   1
M  END
$$$$

 OpenBabel10082008492D

 21 23  0  0  0  0  0  0  0  0999 V2000
    0.9659   -0.7412    0.0000 C   0  0  0  0  0  0  0  0  0  0  0  0
    0.0000   -1.0000    0.0000 N   0  3  0  0  0  0  0  0  0  0  0  0
   -0.1305   -1.9914    0.0000 C   0  0  0  0  0  0  0  0  0  0  0  0
   -0.8660   -1.5000    0.0000 C   0  0  0  0  0  0  0  0  0  0  0  0
   -1.7321   -1.0000    0.0000 C   0  0  0  0  0  0  0  0  0  0  0  0
   -1.7321   -0.0000    0.0000 C   0  0  0  0  0  0  0  0  0  0  0  0
   -2.5981    0.5000    0.0000 C   0  0  0  0  0  0  0  0  0  0  0  0
   -2.5981    1.5000    0.0000 C   0  0  0  0  0  0  0  0  0  0  0  0
   -3.4641    2.0000    0.0000 C   0  0  0  0  0  0  0  0  0  0  0  0
   -3.4641    3.0000    0.0000 C   0  0  0  0  0  0  0  0  0  0  0  0
   -2.5981    3.5000    0.0000 C   0  0  0  0  0  0  0  0  0  0  0  0
   -1.7321    3.0000    0.0000 C   0  0  0  0  0  0  0  0  0  0  0  0
   -1.7321    2.0000    0.0000 C   0  0  0  0  0  0  0  0  0  0  0  0
   -3.4641   -0.0000    0.0000 C   0  0  0  0  0  0  0  0  0  0  0  0
   -3.4641   -1.0000    0.0000 C   0  0  0  0  0  0  0  0  0  0  0  0
   -4.3301   -1.5000    0.0000 C   0  0  0  0  0  0  0  0  0  0  0  0
   -5.1962   -1.0000    0.0000 C   0  0  0  0  0  0  0  0  0  0  0  0
   -5.1962   -0.0000    0.0000 C   0  0  0  0  0  0  0  0  0  0  0  0
   -4.3301    0.5000    0.0000 C   0  0  0  0  0  0  0  0  0  0  0  0
   -0.8660    0.5000    0.0000 C   0  0  0  0  0  0  0  0  0  0  0  0
    0.0000   -0.0000    0.0000 C   0  0  0  0  0  0  0  0  0  0  0  0
  1  2  1  0  0  0  0
  2 21  1  0  0  0  0
  2  3  1  0  0  0  0
  2  4  1  0  0  0  0
  4  5  1  0  0  0  0
  5  6  1  0  0  0  0
  6  7  2  0  0  0  0
  6 20  1  0  0  0  0
  7  8  1  0  0  0  0
  7 14  1  0  0  0  0
  8 13  1  0  0  0  0
  8  9  2  0  0  0  0
  9 10  1  0  0  0  0
 10 11  2  0  0  0  0
 11 12  1  0  0  0  0
 12 13  2  0  0  0  0
 14 19  1  0  0  0  0
 14 15  2  0  0  0  0
 15 16  1  0  0  0  0
 16 17  2  0  0  0  0
 17 18  1  0  0  0  0
 18 19  2  0  0  0  0
 20 21  1  0  0  0  0
M  CHG  1   2   1
M  END
$$$$

 OpenBabel10082008492D

 21 23  0  0  1  0  0  0  0  0999 V2000
   -2.5981   -1.5000    0.0000 C   0  0  0  0  0  0  0  0  0  0  0  0
   -1.7321   -2.0000    0.0000 C   0  0  3  0  0  0  0  0  0  0  0  0
   -1.7321   -3.0000    0.0000 C   0  0  0  0  0  0  0  0  0  0  0  0
   -0.8660   -3.5000    0.0000 N   0  0  0  0  0  0  0  0  0  0  0  0
   -0.8660   -4.5000    0.0000 C   0  0  0  0  0  0  0  0  0  0  0  0
   -0.0000   -3.0000    0.0000 C   0  0  0  0  0  0  0  0  0  0  0  0
   -0.8660   -1.5000    0.0000 C   0  0  0  0  0  0  0  0  0  0  0  0
   -0.8660   -0.5000    0.0000 N   0  0  0  0  0  0  0  0  0  0  0  0
   -1.7321   -0.0000    0.0000 C   0  0  0  0  0  0  0  0  0  0  0  0
   -2.5981   -0.5000    0.0000 C   0  0  0  0  0  0  0  0  0  0  0  0
   -3.4641   -0.0000    0.0000 C   0  0  0  0  0  0  0  0  0  0  0  0
   -3.4641    1.0000    0.0000 C   0  0  0  0  0  0  0  0  0  0  0  0
   -2.5981    1.5000    0.0000 C   0  0  0  0  0  0  0  0  0  0  0  0
   -1.7321    1.0000    0.0000 C   0  0  0  0  0  0  0  0  0  0  0  0
   -0.8660    1.5000    0.0000 S   0  0  0  0  0  0  0  0  0  0  0  0
   -0.0000    1.0000    0.0000 C   0  0  0  0  0  0  0  0  0  0  0  0
    0.8660    1.5000    0.0000 C   0  0  0  0  0  0  0  0  0  0  0  0
    1.7321    1.0000    0.0000 C   0  0  0  0  0  0  0  0  0  0  0  0
    1.7321    0.0000    0.0000 C   0  0  0  0  0  0  0  0  0  0  0  0
    0.8660   -0.5000    0.0000 C   0  0  0  0  0  0  0  0  0  0  0  0
    0.0000   -0.0000    0.0000 C   0  0  0  0  0  0  0  0  0  0  0  0
  1  2  1  0  0  0  0
  2  3  1  0  0  0  0
  2  7  1  0  0  0  0
  3  4  1  0  0  0  0
  4  5  1  0  0  0  0
  4  6  1  0  0  0  0
  7  8  1  0  0  0  0
  8 21  1  0  0  0  0
  8  9  1  0  0  0  0
  9 14  1  0  0  0  0
  9 10  2  0  0  0  0
 10 11  1  0  0  0  0
 11 12  2  0  0  0  0
 12 13  1  0  0  0  0
 13 14  2  0  0  0  0
 14 15  1  0  0  0  0
 15 16  1  0  0  0  0
 16 21  1  0  0  0  0
 16 17  2  0  0  0  0
 17 18  1  0  0  0  0
 18 19  2  0  0  0  0
 19 20  1  0  0  0  0
 20 21  2  0  0  0  0
M  END
$$$$

 OpenBabel10082008492D

 25 26  0  0  0  0  0  0  0  0999 V2000
    1.0000   -6.0000    0.0000 O   0  0  0  0  0  0  0  0  0  0  0  0
    1.8660   -5.5000    0.0000 S   0  0  3  0  0  0  0  0  0  0  0  0
    2.7321   -6.0000    0.0000 O   0  0  0  0  0  0  0  0  0  0  0  0
    1.8660   -4.5000    0.0000 C   0  0  0  0  0  0  0  0  0  0  0  0
    1.0000   -4.0000    0.0000 N   0  0  0  0  0  0  0  0  0  0  0  0
    1.0000   -3.0000    0.0000 C   0  0  0  0  0  0  0  0  0  0  0  0
    0.1340   -2.5000    0.0000 C   0  0  0  0  0  0  0  0  0  0  0  0
    0.1340   -1.5000    0.0000 C   0  0  0  0  0  0  0  0  0  0  0  0
    1.0000   -1.0000    0.0000 C   0  0  0  0  0  0  0  0  0  0  0  0
    1.0000   -0.0000    0.0000 S   0  0  0  0  0  0  0  0  0  0  0  0
    2.0000   -0.0000    0.0000 O   0  0  0  0  0  0  0  0  0  0  0  0
    1.0000    1.0000    0.0000 O   0  0  0  0  0  0  0  0  0  0  0  0
    0.0000    0.0000    0.0000 C   0  0  0  0  0  0  0  0  0  0  0  0
   -0.5000   -0.8660    0.0000 C   0  0  0  0  0  0  0  0  0  0  0  0
   -1.5000   -0.8660    0.0000 C   0  0  0  0  0  0  0  0  0  0  0  0
   -2.0000   -0.0000    0.0000 C   0  0  0  0  0  0  0  0  0  0  0  0
   -3.0000    0.0000    0.0000 N   0  0  0  0  0  0  0  0  0  0  0  0
   -3.5000    0.8660    0.0000 C   0  0  0  0  0  0  0  0  0  0  0  0
   -4.5000    0.8660    0.0000 S   0  0  3  0  0  0  0  0  0  0  0  0
   -5.0000    1.7321    0.0000 O   0  0  0  0  0  0  0  0  0  0  0  0
   -5.0000    0.0000    0.0000 O   0  0  0  0  0  0  0  0  0  0  0  0
   -1.5000    0.8660    0.0000 C   0  0  0  0  0  0  0  0  0  0  0  0
   -0.5000    0.8660    0.0000 C   0  0  0  0  0  0  0  0  0  0  0  0
    1.8660   -1.5000    0.0000 C   0  0  0  0  0  0  0  0  0  0  0  0
    1.8660   -2.5000    0.0000 C   0  0  0  0  0  0  0  0  0  0  0  0
  1  2  2  0  0  0  0
  2  3  1  0  0  0  0
  2  4  1  0  0  0  0
  4  5  1  0  0  0  0
  5  6  1  0  0  0  0
  6 25  1  0  0  0  0
  6  7  2  0  0  0  0
  7  8  1  0  0  0  0
  8  9  2  0  0  0  0
  9 10  1  0  0  0  0
  9 24  1  0  0  0  0
 10 11  2  0  0  0  0
 10 12  2  0  0  0  0
 10 13  1  0  0  0  0
 13 23  1  0  0  0  0
 13 14  2  0  0  0  0
 14 15  1  0  0  0  0
 15 16  2  0  0  0  0
 16 17  1  0  0  0  0
 16 22  1  0  0  0  0
 17 18  1  0  0  0  0
 18 19  1  0  0  0  0
 19 20  2  0  0  0  0
 19 21  1  0  0  0  0
 22 23  2  0  0  0  0
 24 25  2  0  0  0  0
M  END
$$$$

 OpenBabel10082008492D

 26 27  0  0  0  0  0  0  0  0999 V2000
   -1.5000   -0.1340    0.0000 C   0  0  0  0  0  0  0  0  0  0  0  0
   -1.0000   -1.0000    0.0000 C   0  0  0  0  0  0  0  0  0  0  0  0
   -1.5000   -1.8660    0.0000 C   0  0  0  0  0  0  0  0  0  0  0  0
   -0.0000   -1.0000    0.0000 N   0  3  0  0  0  0  0  0  0  0  0  0
    0.0000   -2.0000    0.0000 C   0  0  0  0  0  0  0  0  0  0  0  0
    1.0000   -1.0000    0.0000 C   0  0  0  0  0  0  0  0  0  0  0  0
    1.5000   -0.1340    0.0000 C   0  0  0  0  0  0  0  0  0  0  0  0
    2.5000   -0.1340    0.0000 C   0  0  0  0  0  0  0  0  0  0  0  0
    2.5000   -1.1340    0.0000 C   0  0  0  0  0  0  0  0  0  0  0  0
    1.6340   -1.6340    0.0000 N   0  0  0  0  0  0  0  0  0  0  0  0
    3.3660   -1.6340    0.0000 O   0  0  0  0  0  0  0  0  0  0  0  0
    3.5000   -0.1340    0.0000 C   0  0  0  0  0  0  0  0  0  0  0  0
    4.0000    0.7321    0.0000 C   0  0  0  0  0  0  0  0  0  0  0  0
    5.0000    0.7321    0.0000 C   0  0  0  0  0  0  0  0  0  0  0  0
    5.5000   -0.1340    0.0000 C   0  0  0  0  0  0  0  0  0  0  0  0
    5.0000   -1.0000    0.0000 C   0  0  0  0  0  0  0  0  0  0  0  0
    4.0000   -1.0000    0.0000 C   0  0  0  0  0  0  0  0  0  0  0  0
    2.5000    0.8660    0.0000 C   0  0  0  0  0  0  0  0  0  0  0  0
    1.6340    1.3660    0.0000 C   0  0  0  0  0  0  0  0  0  0  0  0
    1.6340    2.3660    0.0000 C   0  0  0  0  0  0  0  0  0  0  0  0
    2.5000    2.8660    0.0000 C   0  0  0  0  0  0  0  0  0  0  0  0
    3.3660    2.3660    0.0000 C   0  0  0  0  0  0  0  0  0  0  0  0
    3.3660    1.3660    0.0000 C   0  0  0  0  0  0  0  0  0  0  0  0
    0.0000   -0.0000    0.0000 C   0  0  0  0  0  0  0  0  0  0  0  0
    0.8660    0.5000    0.0000 C   0  0  0  0  0  0  0  0  0  0  0  0
   -0.8660    0.5000    0.0000 C   0  0  0  0  0  0  0  0  0  0  0  0
  1  2  1  0  0  0  0
  2  3  1  0  0  0  0
  2  4  1  0  0  0  0
  4  5  1  0  0  0  0
  4  6  1  0  0  0  0
  4 24  1  0  0  0  0
  6  7  1  0  0  0  0
  7  8  1  0  0  0  0
  8  9  1  0  0  0  0
  8 12  1  0  0  0  0
  8 18  1  0  0  0  0
  9 10  1  0  0  0  0
  9 11  2  0  0  0  0
 12 17  1  0  0  0  0
 12 13  2  0  0  0  0
 13 14  1  0  0  0  0
 14 15  2  0  0  0  0
 15 16  1  0  0  0  0
 16 17  2  0  0  0  0
 18 23  1  0  0  0  0
 18 19  2  0  0  0  0
 19 20  1  0  0  0  0
 20 21  2  0  0  0  0
 21 22  1  0  0  0  0
 22 23  2  0  0  0  0
 24 25  1  0  0  0  0
 24 26  1  0  0  0  0
M  CHG  1   4   1
M  END
$$$$

 OpenBabel10082008492D

  7  6  0  0  0  0  0  0  0  0999 V2000
    3.4641   -1.0000    0.0000 O   0  0  0  0  0  0  0  0  0  0  0  0
    3.4641   -0.0000    0.0000 C   0  0  0  0  0  0  0  0  0  0  0  0
    4.3301    0.5000    0.0000 O   0  0  0  0  0  0  0  0  0  0  0  0
    2.5981    0.5000    0.0000 C   0  0  0  0  0  0  0  0  0  0  0  0
    1.7321   -0.0000    0.0000 C   0  0  0  0  0  0  0  0  0  0  0  0
    0.8660    0.5000    0.0000 C   0  0  0  0  0  0  0  0  0  0  0  0
    0.0000    0.0000    0.0000 O   0  0  0  0  0  0  0  0  0  0  0  0
  1  2  2  0  0  0  0
  2  3  1  0  0  0  0
  2  4  1  0  0  0  0
  4  5  1  0  0  0  0
  5  6  1  0  0  0  0
  6  7  1  0  0  0  0
M  END
$$$$

 OpenBabel10082008492D

 31 33  0  0  1  0  0  0  0  0999 V2000
    0.8660   -2.5000    0.0000 O   0  0  0  0  0  0  0  0  0  0  0  0
    0.8660   -1.5000    0.0000 C   0  0  0  0  0  0  0  0  0  0  0  0
    1.7321   -1.0000    0.0000 O   0  0  0  0  0  0  0  0  0  0  0  0
    0.0000   -1.0000    0.0000 C   0  0  0  0  0  0  0  0  0  0  0  0
   -0.8660   -1.5000    0.0000 C   0  0  0  0  0  0  0  0  0  0  0  0
   -1.7321   -1.0000    0.0000 C   0  0  0  0  0  0  0  0  0  0  0  0
   -1.7321   -0.0000    0.0000 C   0  0  0  0  0  0  0  0  0  0  0  0
   -2.5981    0.5000    0.0000 N   0  0  0  0  0  0  0  0  0  0  0  0
   -3.4641   -0.0000    0.0000 C   0  0  0  0  0  0  0  0  0  0  0  0
   -3.4641   -1.0000    0.0000 O   0  0  0  0  0  0  0  0  0  0  0  0
   -4.3301    0.5000    0.0000 C   0  0  2  0  0  0  0  0  0  0  0  0
   -4.8301   -0.3660    0.0000 H   0  0  0  0  0  0  0  0  0  0  0  0
   -5.1962    1.0000    0.0000 C   0  0  0  0  0  0  0  0  0  0  0  0
   -6.0622    0.5000    0.0000 C   0  0  0  0  0  0  0  0  0  0  0  0
   -6.9282    1.0000    0.0000 C   0  0  0  0  0  0  0  0  0  0  0  0
   -7.7942    0.5000    0.0000 C   0  0  0  0  0  0  0  0  0  0  0  0
   -7.7942   -0.5000    0.0000 C   0  0  0  0  0  0  0  0  0  0  0  0
   -8.6603   -1.0000    0.0000 O   0  0  0  0  0  0  0  0  0  0  0  0
   -6.9282   -1.0000    0.0000 C   0  0  0  0  0  0  0  0  0  0  0  0
   -6.0622   -0.5000    0.0000 C   0  0  0  0  0  0  0  0  0  0  0  0
   -3.8301    1.3660    0.0000 N   0  0  0  0  0  0  0  0  0  0  0  0
   -4.3301    2.2321    0.0000 C   0  0  0  0  0  0  0  0  0  0  0  0
   -5.3301    2.2321    0.0000 O   0  0  0  0  0  0  0  0  0  0  0  0
   -3.8301    3.0981    0.0000 C   0  0  0  0  0  0  0  0  0  0  0  0
   -2.8301    3.0981    0.0000 C   0  0  0  0  0  0  0  0  0  0  0  0
   -2.3301    3.9641    0.0000 C   0  0  0  0  0  0  0  0  0  0  0  0
   -2.8301    4.8301    0.0000 C   0  0  0  0  0  0  0  0  0  0  0  0
   -3.8301    4.8301    0.0000 C   0  0  0  0  0  0  0  0  0  0  0  0
   -4.3301    3.9641    0.0000 C   0  0  0  0  0  0  0  0  0  0  0  0
   -0.8660    0.5000    0.0000 C   0  0  0  0  0  0  0  0  0  0  0  0
   -0.0000   -0.0000    0.0000 C   0  0  0  0  0  0  0  0  0  0  0  0
  1  2  2  0  0  0  0
  2  3  1  0  0  0  0
  2  4  1  0  0  0  0
  4 31  1  0  0  0  0
  4  5  2  0  0  0  0
  5  6  1  0  0  0  0
  6  7  2  0  0  0  0
  7  8  1  0  0  0  0
  7 30  1  0  0  0  0
  8  9  1  0  0  0  0
  9 10  2  0  0  0  0
  9 11  1  0  0  0  0
 11 12  1  1  0  0  0
 11 13  1  0  0  0  0
 11 21  1  0  0  0  0
 13 14  1  0  0  0  0
 14 20  1  0  0  0  0
 14 15  2  0  0  0  0
 15 16  1  0  0  0  0
 16 17  2  0  0  0  0
 17 18  1  0  0  0  0
 17 19  1  0  0  0  0
 19 20  2  0  0  0  0
 21 22  1  0  0  0  0
 22 23  2  0  0  0  0
 22 24  1  0  0  0  0
 24 29  1  0  0  0  0
 24 25  2  0  0  0  0
 25 26  1  0  0  0  0
 26 27  2  0  0  0  0
 27 28  1  0  0  0  0
 28 29  2  0  0  0  0
 30 31  2  0  0  0  0
M  END
$$$$

 OpenBabel10082008492D

 23 25  0  0  1  0  0  0  0  0999 V2000
    1.1248    0.4659    0.0000 C   0  0  0  0  0  0  0  0  0  0  0  0
    0.8660   -0.5000    0.0000 N   0  3  0  0  0  0  0  0  0  0  0  0
    1.6594   -1.1088    0.0000 C   0  0  0  0  0  0  0  0  0  0  0  0
    0.8660   -1.5000    0.0000 C   0  0  0  0  0  0  0  0  0  0  0  0
    0.0000   -2.0000    0.0000 C   0  0  0  0  0  0  0  0  0  0  0  0
   -0.8660   -1.5000    0.0000 N   0  0  0  0  0  0  0  0  0  0  0  0
   -1.7321   -2.0000    0.0000 C   0  0  0  0  0  0  0  0  0  0  0  0
   -2.5981   -1.5000    0.0000 C   0  0  3  0  0  0  0  0  0  0  0  0
   -2.0981   -0.6340    0.0000 O   0  0  0  0  0  0  0  0  0  0  0  0
   -3.4641   -1.0000    0.0000 C   0  0  0  0  0  0  0  0  0  0  0  0
   -4.3301   -1.5000    0.0000 C   0  0  0  0  0  0  0  0  0  0  0  0
   -5.1962   -1.0000    0.0000 C   0  0  0  0  0  0  0  0  0  0  0  0
   -5.1962    0.0000    0.0000 C   0  0  0  0  0  0  0  0  0  0  0  0
   -4.3301    0.5000    0.0000 C   0  0  0  0  0  0  0  0  0  0  0  0
   -3.4641    0.0000    0.0000 C   0  0  0  0  0  0  0  0  0  0  0  0
   -3.0981   -2.3660    0.0000 C   0  0  0  0  0  0  0  0  0  0  0  0
   -2.5981   -3.2321    0.0000 C   0  0  0  0  0  0  0  0  0  0  0  0
   -3.0981   -4.0981    0.0000 C   0  0  0  0  0  0  0  0  0  0  0  0
   -4.0981   -4.0981    0.0000 C   0  0  0  0  0  0  0  0  0  0  0  0
   -4.5981   -3.2321    0.0000 C   0  0  0  0  0  0  0  0  0  0  0  0
   -4.0981   -2.3660    0.0000 C   0  0  0  0  0  0  0  0  0  0  0  0
   -0.8660   -0.5000    0.0000 C   0  0  0  0  0  0  0  0  0  0  0  0
    0.0000   -0.0000    0.0000 C   0  0  0  0  0  0  0  0  0  0  0  0
  1  2  1  0  0  0  0
  2 23  1  0  0  0  0
  2  3  1  0  0  0  0
  2  4  1  0  0  0  0
  4  5  1  0  0  0  0
  5  6  1  0  0  0  0
  6  7  1  0  0  0  0
  6 22  1  0  0  0  0
  7  8  1  0  0  0  0
  8  9  1  0  0  0  0
  8 10  1  0  0  0  0
  8 16  1  0  0  0  0
 10 15  1  0  0  0  0
 10 11  2  0  0  0  0
 11 12  1  0  0  0  0
 12 13  2  0  0  0  0
 13 14  1  0  0  0  0
 14 15  2  0  0  0  0
 16 21  1  0  0  0  0
 16 17  1  0  0  0  0
 17 18  1  0  0  0  0
 18 19  1  0  0  0  0
 19 20  1  0  0  0  0
 20 21  1  0  0  0  0
 22 23  1  0  0  0  0
M  CHG  1   2   1
M  END
$$$$

 OpenBabel10082008492D

 20 22  0  0  1  0  0  0  0  0999 V2000
   -3.7844    2.3291    0.0000 C   0  0  0  0  0  0  0  0  0  0  0  0
   -4.1768    1.4481    0.0000 C   0  0  3  0  0  0  0  0  0  0  0  0
   -5.1360    1.3474    0.0000 C   0  0  0  0  0  0  0  0  0  0  0  0
   -5.7027    2.1278    0.0000 O   0  0  0  0  0  0  0  0  0  0  0  0
   -5.5284    0.4664    0.0000 O   0  0  0  0  0  0  0  0  0  0  0  0
   -3.3416    0.9657    0.0000 C   0  0  0  0  0  0  0  0  0  0  0  0
   -3.3418    0.0007    0.0000 C   0  0  0  0  0  0  0  0  0  0  0  0
   -2.5067   -0.4818    0.0000 C   0  0  0  0  0  0  0  0  0  0  0  0
   -1.6709    0.0003    0.0000 C   0  0  0  0  0  0  0  0  0  0  0  0
   -1.6707    0.9654    0.0000 C   0  0  0  0  0  0  0  0  0  0  0  0
   -2.5063    1.4478    0.0000 C   0  0  0  0  0  0  0  0  0  0  0  0
   -0.8354    1.4475    0.0000 N   0  0  0  0  0  0  0  0  0  0  0  0
   -0.8353    2.4475    0.0000 H   0  0  0  0  0  0  0  0  0  0  0  0
    0.0002    0.9651    0.0000 C   0  0  0  0  0  0  0  0  0  0  0  0
    0.8360    1.4472    0.0000 C   0  0  0  0  0  0  0  0  0  0  0  0
    1.6711    0.9647    0.0000 C   0  0  0  0  0  0  0  0  0  0  0  0
    1.6709   -0.0003    0.0000 C   0  0  0  0  0  0  0  0  0  0  0  0
    2.5369   -0.5005    0.0000 Cl  0  0  0  0  0  0  0  0  0  0  0  0
    0.8356   -0.4824    0.0000 C   0  0  0  0  0  0  0  0  0  0  0  0
   -0.0000   -0.0000    0.0000 C   0  0  0  0  0  0  0  0  0  0  0  0
  1  2  1  0  0  0  0
  2  3  1  0  0  0  0
  2  6  1  0  0  0  0
  3  4  2  0  0  0  0
  3  5  1  0  0  0  0
  6 11  1  0  0  0  0
  6  7  2  0  0  0  0
  7  8  1  0  0  0  0
  8  9  2  0  0  0  0
  9 20  1  0  0  0  0
  9 10  1  0  0  0  0
 10 11  2  0  0  0  0
 10 12  1  0  0  0  0
 12 13  1  0  0  0  0
 12 14  1  0  0  0  0
 14 20  1  0  0  0  0
 14 15  2  0  0  0  0
 15 16  1  0  0  0  0
 16 17  2  0  0  0  0
 17 18  1  0  0  0  0
 17 19  1  0  0  0  0
 19 20  2  0  0  0  0
M  END
$$$$

 OpenBabel10082008492D

 20 20  0  0  0  0  0  0  0  0999 V2000
    2.5981    1.5000    0.0000 C   0  0  0  0  0  0  0  0  0  0  0  0
    1.7321    2.0000    0.0000 C   0  0  0  0  0  0  0  0  0  0  0  0
    1.7321    3.0000    0.0000 O   0  0  0  0  0  0  0  0  0  0  0  0
    0.8660    1.5000    0.0000 N   0  0  0  0  0  0  0  0  0  0  0  0
    0.8660    0.5000    0.0000 C   0  0  0  0  0  0  0  0  0  0  0  0
    1.7321    0.0000    0.0000 C   0  0  0  0  0  0  0  0  0  0  0  0
    2.5981    0.5000    0.0000 I   0  0  0  0  0  0  0  0  0  0  0  0
    1.7321   -1.0000    0.0000 C   0  0  0  0  0  0  0  0  0  0  0  0
    2.5981   -1.5000    0.0000 N   0  0  0  0  0  0  0  0  0  0  0  0
    2.5981   -2.5000    0.0000 C   0  0  0  0  0  0  0  0  0  0  0  0
    1.7321   -3.0000    0.0000 C   0  0  0  0  0  0  0  0  0  0  0  0
    3.4641   -3.0000    0.0000 O   0  0  0  0  0  0  0  0  0  0  0  0
    0.8660   -1.5000    0.0000 C   0  0  0  0  0  0  0  0  0  0  0  0
    0.8660   -2.5000    0.0000 I   0  0  0  0  0  0  0  0  0  0  0  0
    0.0000   -1.0000    0.0000 C   0  0  0  0  0  0  0  0  0  0  0  0
   -0.8660   -1.5000    0.0000 C   0  0  0  0  0  0  0  0  0  0  0  0
   -1.7321   -1.0000    0.0000 O   0  0  0  0  0  0  0  0  0  0  0  0
   -0.8660   -2.5000    0.0000 O   0  0  0  0  0  0  0  0  0  0  0  0
   -0.0000   -0.0000    0.0000 C   0  0  0  0  0  0  0  0  0  0  0  0
   -0.8660    0.5000    0.0000 I   0  0  0  0  0  0  0  0  0  0  0  0
  1  2  1  0  0  0  0
  2  3  2  0  0  0  0
  2  4  1  0  0  0  0
  4  5  1  0  0  0  0
  5 19  1  0  0  0  0
  5  6  2  0  0  0  0
  6  7  1  0  0  0  0
  6  8  1  0  0  0  0
  8  9  1  0  0  0  0
  8 13  2  0  0  0  0
  9 10  1  0  0  0  0
 10 11  1  0  0  0  0
 10 12  2  0  0  0  0
 13 14  1  0  0  0  0
 13 15  1  0  0  0  0
 15 16  1  0  0  0  0
 15 19  2  0  0  0  0
 16 17  2  0  0  0  0
 16 18  1  0  0  0  0
 19 20  1  0  0  0  0
M  END
$$$$

 OpenBabel10082008492D

 12 11  0  0  1  0  0  0  0  0999 V2000
    4.0000    0.0000    0.0000 O   0  0  0  0  0  0  0  0  0  0  0  0
    3.0000    0.0000    0.0000 C   0  0  0  0  0  0  0  0  0  0  0  0
    2.5000    0.8660    0.0000 O   0  0  0  0  0  0  0  0  0  0  0  0
    2.5000   -0.8660    0.0000 C   0  0  1  0  0  0  0  0  0  0  0  0
    2.5000   -1.8660    0.0000 H   0  0  0  0  0  0  0  0  0  0  0  0
    3.3660   -1.3660    0.0000 O   0  0  0  0  0  0  0  0  0  0  0  0
    1.5000   -0.8660    0.0000 C   0  0  2  0  0  0  0  0  0  0  0  0
    0.6340   -1.3660    0.0000 H   0  0  0  0  0  0  0  0  0  0  0  0
    1.5000   -1.8660    0.0000 O   0  0  0  0  0  0  0  0  0  0  0  0
    1.0000    0.0000    0.0000 C   0  0  0  0  0  0  0  0  0  0  0  0
    1.5000    0.8660    0.0000 O   0  0  0  0  0  0  0  0  0  0  0  0
   -0.0000   -0.0000    0.0000 O   0  0  0  0  0  0  0  0  0  0  0  0
  1  2  2  0  0  0  0
  2  3  1  0  0  0  0
  2  4  1  0  0  0  0
  4  5  1  6  0  0  0
  4  6  1  0  0  0  0
  4  7  1  0  0  0  0
  7  8  1  1  0  0  0
  7  9  1  0  0  0  0
  7 10  1  0  0  0  0
 10 11  2  0  0  0  0
 10 12  1  0  0  0  0
M  END
$$$$

 OpenBabel10082008492D

 18 18  0  0  1  0  0  0  0  0999 V2000
    4.3301    1.5000    0.0000 C   0  0  0  0  0  0  0  0  0  0  0  0
    3.4641    1.0000    0.0000 C   0  0  3  0  0  0  0  0  0  0  0  0
    2.5981    1.5000    0.0000 N   0  0  0  0  0  0  0  0  0  0  0  0
    1.7321    1.0000    0.0000 C   0  0  0  0  0  0  0  0  0  0  0  0
    0.8660    1.5000    0.0000 N   0  0  0  0  0  0  0  0  0  0  0  0
    0.8660    2.5000    0.0000 C   0  0  0  0  0  0  0  0  0  0  0  0
    0.8660    3.5000    0.0000 N   0  0  0  0  0  0  0  0  0  0  0  0
    1.7321   -0.0000    0.0000 N   0  0  0  0  0  0  0  0  0  0  0  0
    0.8660   -0.5000    0.0000 C   0  0  0  0  0  0  0  0  0  0  0  0
    0.8660   -1.5000    0.0000 C   0  0  0  0  0  0  0  0  0  0  0  0
   -0.0000   -2.0000    0.0000 C   0  0  0  0  0  0  0  0  0  0  0  0
   -0.8660   -1.5000    0.0000 N   0  0  0  0  0  0  0  0  0  0  0  0
   -0.8660   -0.5000    0.0000 C   0  0  0  0  0  0  0  0  0  0  0  0
    0.0000   -0.0000    0.0000 C   0  0  0  0  0  0  0  0  0  0  0  0
    3.4641   -0.0000    0.0000 C   0  0  0  0  0  0  0  0  0  0  0  0
    3.9641   -0.8660    0.0000 C   0  0  0  0  0  0  0  0  0  0  0  0
    4.4641   -0.0000    0.0000 C   0  0  0  0  0  0  0  0  0  0  0  0
    2.5981   -0.5000    0.0000 C   0  0  0  0  0  0  0  0  0  0  0  0
  1  2  1  0  0  0  0
  2  3  1  0  0  0  0
  2 15  1  0  0  0  0
  3  4  1  0  0  0  0
  4  5  2  0  0  0  0
  4  8  1  0  0  0  0
  5  6  1  0  0  0  0
  6  7  3  0  0  0  0
  8  9  1  0  0  0  0
  9 14  1  0  0  0  0
  9 10  2  0  0  0  0
 10 11  1  0  0  0  0
 11 12  2  0  0  0  0
 12 13  1  0  0  0  0
 13 14  2  0  0  0  0
 15 16  1  0  0  0  0
 15 17  1  0  0  0  0
 15 18  1  0  0  0  0
M  END
$$$$

 OpenBabel10082008492D

 19 19  0  0  0  0  0  0  0  0999 V2000
   -0.8660   -3.5000    0.0000 C   0  0  0  0  0  0  0  0  0  0  0  0
   -0.0000   -3.0000    0.0000 N   0  0  0  0  0  0  0  0  0  0  0  0
    0.8660   -3.5000    0.0000 C   0  0  0  0  0  0  0  0  0  0  0  0
   -0.0000   -2.0000    0.0000 C   0  0  0  0  0  0  0  0  0  0  0  0
   -0.8660   -1.5000    0.0000 N   0  0  0  0  0  0  0  0  0  0  0  0
   -0.8660   -0.5000    0.0000 C   0  0  0  0  0  0  0  0  0  0  0  0
   -1.7321   -0.0000    0.0000 C   0  0  0  0  0  0  0  0  0  0  0  0
   -2.5981   -0.5000    0.0000 I   0  0  0  0  0  0  0  0  0  0  0  0
   -1.7321    1.0000    0.0000 C   0  0  0  0  0  0  0  0  0  0  0  0
   -0.8660    1.5000    0.0000 C   0  0  0  0  0  0  0  0  0  0  0  0
   -0.8660    2.5000    0.0000 I   0  0  0  0  0  0  0  0  0  0  0  0
   -0.0000    1.0000    0.0000 C   0  0  0  0  0  0  0  0  0  0  0  0
    0.8660    1.5000    0.0000 C   0  0  0  0  0  0  0  0  0  0  0  0
    0.8660    2.5000    0.0000 C   0  0  0  0  0  0  0  0  0  0  0  0
    1.7321    3.0000    0.0000 C   0  0  0  0  0  0  0  0  0  0  0  0
    1.7321    4.0000    0.0000 O   0  0  0  0  0  0  0  0  0  0  0  0
    2.5981    2.5000    0.0000 O   0  0  0  0  0  0  0  0  0  0  0  0
    0.0000    0.0000    0.0000 C   0  0  0  0  0  0  0  0  0  0  0  0
    0.8660   -0.5000    0.0000 I   0  0  0  0  0  0  0  0  0  0  0  0
  1  2  1  0  0  0  0
  2  3  1  0  0  0  0
  2  4  1  0  0  0  0
  4  5  2  0  0  0  0
  5  6  1  0  0  0  0
  6 18  1  0  0  0  0
  6  7  2  0  0  0  0
  7  8  1  0  0  0  0
  7  9  1  0  0  0  0
  9 10  2  0  0  0  0
 10 11  1  0  0  0  0
 10 12  1  0  0  0  0
 12 13  1  0  0  0  0
 12 18  2  0  0  0  0
 13 14  1  0  0  0  0
 14 15  1  0  0  0  0
 15 16  2  0  0  0  0
 15 17  1  0  0  0  0
 18 19  1  0  0  0  0
M  END
$$$$

 OpenBabel10082008492D

 17 18  0  0  0  0  0  0  0  0999 V2000
    0.8660   -1.5000    0.0000 N   0  0  0  0  0  0  0  0  0  0  0  0
    0.0000   -1.0000    0.0000 C   0  0  0  0  0  0  0  0  0  0  0  0
   -0.8660   -1.5000    0.0000 C   0  0  0  0  0  0  0  0  0  0  0  0
   -1.7321   -1.0000    0.0000 C   0  0  0  0  0  0  0  0  0  0  0  0
   -1.7321   -0.0000    0.0000 C   0  0  0  0  0  0  0  0  0  0  0  0
   -2.5981    0.5000    0.0000 C   0  0  0  0  0  0  0  0  0  0  0  0
   -2.5981    1.5000    0.0000 O   0  0  0  0  0  0  0  0  0  0  0  0
   -3.4641   -0.0000    0.0000 O   0  0  0  0  0  0  0  0  0  0  0  0
   -4.3301    0.5000    0.0000 C   0  0  0  0  0  0  0  0  0  0  0  0
   -5.1962   -0.0000    0.0000 C   0  0  0  0  0  0  0  0  0  0  0  0
   -6.0622    0.5000    0.0000 C   0  0  0  0  0  0  0  0  0  0  0  0
   -6.0622    1.5000    0.0000 C   0  0  0  0  0  0  0  0  0  0  0  0
   -5.1962    2.0000    0.0000 C   0  0  0  0  0  0  0  0  0  0  0  0
   -4.3301    1.5000    0.0000 C   0  0  0  0  0  0  0  0  0  0  0  0
   -0.8660    0.5000    0.0000 C   0  0  0  0  0  0  0  0  0  0  0  0
   -0.8660    1.5000    0.0000 O   0  0  0  0  0  0  0  0  0  0  0  0
   -0.0000   -0.0000    0.0000 C   0  0  0  0  0  0  0  0  0  0  0  0
  1  2  1  0  0  0  0
  2 17  1  0  0  0  0
  2  3  2  0  0  0  0
  3  4  1  0  0  0  0
  4  5  2  0  0  0  0
  5  6  1  0  0  0  0
  5 15  1  0  0  0  0
  6  7  2  0  0  0  0
  6  8  1  0  0  0  0
  8  9  1  0  0  0  0
  9 14  1  0  0  0  0
  9 10  2  0  0  0  0
 10 11  1  0  0  0  0
 11 12  2  0  0  0  0
 12 13  1  0  0  0  0
 13 14  2  0  0  0  0
 15 16  1  0  0  0  0
 15 17  2  0  0  0  0
M  END
$$$$

 OpenBabel10082008492D

 17 18  0  0  0  0  0  0  0  0999 V2000
   -1.0249    0.2929    0.0000 C   0  0  0  0  0  0  0  0  0  0  0  0
   -1.7321    1.0000    0.0000 C   0  0  0  0  0  0  0  0  0  0  0  0
   -2.6559    0.6173    0.0000 C   0  0  0  0  0  0  0  0  0  0  0  0
   -2.5981    1.5000    0.0000 N   0  0  0  0  0  0  0  0  0  0  0  0
   -2.5981    2.5000    0.0000 C   0  0  0  0  0  0  0  0  0  0  0  0
   -3.4641    3.0000    0.0000 N   0  0  0  0  0  0  0  0  0  0  0  0
   -1.7321    3.0000    0.0000 N   0  0  0  0  0  0  0  0  0  0  0  0
   -0.8660    2.5000    0.0000 C   0  0  0  0  0  0  0  0  0  0  0  0
   -0.0000    3.0000    0.0000 N   0  0  0  0  0  0  0  0  0  0  0  0
   -0.8660    1.5000    0.0000 N   0  0  0  0  0  0  0  0  0  0  0  0
   -0.0000    1.0000    0.0000 C   0  0  0  0  0  0  0  0  0  0  0  0
    0.8660    1.5000    0.0000 C   0  0  0  0  0  0  0  0  0  0  0  0
    1.7321    1.0000    0.0000 C   0  0  0  0  0  0  0  0  0  0  0  0
    1.7321    0.0000    0.0000 C   0  0  0  0  0  0  0  0  0  0  0  0
    2.5981   -0.5000    0.0000 Cl  0  0  0  0  0  0  0  0  0  0  0  0
    0.8660   -0.5000    0.0000 C   0  0  0  0  0  0  0  0  0  0  0  0
   -0.0000   -0.0000    0.0000 C   0  0  0  0  0  0  0  0  0  0  0  0
  1  2  1  0  0  0  0
  2 10  1  0  0  0  0
  2  3  1  0  0  0  0
  2  4  1  0  0  0  0
  4  5  2  0  0  0  0
  5  6  1  0  0  0  0
  5  7  1  0  0  0  0
  7  8  2  0  0  0  0
  8  9  1  0  0  0  0
  8 10  1  0  0  0  0
 10 11  1  0  0  0  0
 11 17  1  0  0  0  0
 11 12  2  0  0  0  0
 12 13  1  0  0  0  0
 13 14  2  0  0  0  0
 14 15  1  0  0  0  0
 14 16  1  0  0  0  0
 16 17  2  0  0  0  0
M  END
$$$$

 OpenBabel10082008492D

 20 21  0  0  0  0  0  0  0  0999 V2000
    5.3301    2.5000    0.0000 C   0  0  0  0  0  0  0  0  0  0  0  0
    4.4641    3.0000    0.0000 C   0  0  0  0  0  0  0  0  0  0  0  0
    3.5981    2.5000    0.0000 N   0  0  0  0  0  0  0  0  0  0  0  0
    3.5981    1.5000    0.0000 C   0  0  0  0  0  0  0  0  0  0  0  0
    2.7321    1.0000    0.0000 C   0  0  0  0  0  0  0  0  0  0  0  0
    1.8660    1.5000    0.0000 C   0  0  0  0  0  0  0  0  0  0  0  0
    1.0000    1.0000    0.0000 N   0  0  0  0  0  0  0  0  0  0  0  0
    1.0000   -0.0000    0.0000 S   0  0  0  0  0  0  0  0  0  0  0  0
    2.0000   -0.0000    0.0000 O   0  0  0  0  0  0  0  0  0  0  0  0
    1.0000   -1.0000    0.0000 O   0  0  0  0  0  0  0  0  0  0  0  0
   -0.0000   -0.0000    0.0000 C   0  0  0  0  0  0  0  0  0  0  0  0
   -0.5000    0.8660    0.0000 C   0  0  0  0  0  0  0  0  0  0  0  0
   -1.5000    0.8660    0.0000 C   0  0  0  0  0  0  0  0  0  0  0  0
   -2.0000    0.0000    0.0000 C   0  0  0  0  0  0  0  0  0  0  0  0
   -3.0000    0.0000    0.0000 N   0  0  0  0  0  0  0  0  0  0  0  0
   -1.5000   -0.8660    0.0000 C   0  0  0  0  0  0  0  0  0  0  0  0
   -0.5000   -0.8660    0.0000 C   0  0  0  0  0  0  0  0  0  0  0  0
    1.8660    2.5000    0.0000 N   0  0  0  0  0  0  0  0  0  0  0  0
    2.7321    3.0000    0.0000 C   0  0  0  0  0  0  0  0  0  0  0  0
    2.7321    4.0000    0.0000 O   0  0  0  0  0  0  0  0  0  0  0  0
  1  2  1  0  0  0  0
  2  3  1  0  0  0  0
  3 19  1  0  0  0  0
  3  4  1  0  0  0  0
  4  5  2  0  0  0  0
  5  6  1  0  0  0  0
  6  7  1  0  0  0  0
  6 18  2  0  0  0  0
  7  8  1  0  0  0  0
  8  9  2  0  0  0  0
  8 10  2  0  0  0  0
  8 11  1  0  0  0  0
 11 17  1  0  0  0  0
 11 12  2  0  0  0  0
 12 13  1  0  0  0  0
 13 14  2  0  0  0  0
 14 15  1  0  0  0  0
 14 16  1  0  0  0  0
 16 17  2  0  0  0  0
 18 19  1  0  0  0  0
 19 20  2  0  0  0  0
M  END
$$$$

 OpenBabel10082008492D

 17 18  0  0  1  0  0  0  0  0999 V2000
   -1.7321   -0.0000    0.0000 C   0  0  0  0  0  0  0  0  0  0  0  0
   -1.7321    1.0000    0.0000 N   0  0  0  0  0  0  0  0  0  0  0  0
   -2.5981    1.5000    0.0000 C   0  0  0  0  0  0  0  0  0  0  0  0
   -3.4641    1.0000    0.0000 O   0  0  0  0  0  0  0  0  0  0  0  0
   -2.5981    2.5000    0.0000 C   0  0  0  0  0  0  0  0  0  0  0  0
   -1.7321    3.0000    0.0000 C   0  0  0  0  0  0  0  0  0  0  0  0
   -0.8660    2.5000    0.0000 S   0  0  0  0  0  0  0  0  0  0  0  0
    0.1340    2.5000    0.0000 O   0  0  0  0  0  0  0  0  0  0  0  0
   -0.3660    3.3660    0.0000 O   0  0  0  0  0  0  0  0  0  0  0  0
   -0.8660    1.5000    0.0000 C   0  0  3  0  0  0  0  0  0  0  0  0
   -0.0000    1.0000    0.0000 C   0  0  0  0  0  0  0  0  0  0  0  0
    0.8660    1.5000    0.0000 C   0  0  0  0  0  0  0  0  0  0  0  0
    1.7321    1.0000    0.0000 C   0  0  0  0  0  0  0  0  0  0  0  0
    1.7321    0.0000    0.0000 C   0  0  0  0  0  0  0  0  0  0  0  0
    2.5981   -0.5000    0.0000 Cl  0  0  0  0  0  0  0  0  0  0  0  0
    0.8660   -0.5000    0.0000 C   0  0  0  0  0  0  0  0  0  0  0  0
   -0.0000   -0.0000    0.0000 C   0  0  0  0  0  0  0  0  0  0  0  0
  1  2  1  0  0  0  0
  2 10  1  0  0  0  0
  2  3  1  0  0  0  0
  3  4  2  0  0  0  0
  3  5  1  0  0  0  0
  5  6  1  0  0  0  0
  6  7  1  0  0  0  0
  7  8  2  0  0  0  0
  7  9  2  0  0  0  0
  7 10  1  0  0  0  0
 10 11  1  0  0  0  0
 11 17  1  0  0  0  0
 11 12  2  0  0  0  0
 12 13  1  0  0  0  0
 13 14  2  0  0  0  0
 14 15  1  0  0  0  0
 14 16  1  0  0  0  0
 16 17  2  0  0  0  0
M  END
$$$$

 OpenBabel10082008492D

 23 24  0  0  1  0  0  0  0  0999 V2000
   -2.2924    2.9801    0.0000 C   0  0  0  0  0  0  0  0  0  0  0  0
   -1.5901    2.3285    0.0000 C   0  0  0  0  0  0  0  0  0  0  0  0
   -1.8033    1.3944    0.0000 C   0  0  0  0  0  0  0  0  0  0  0  0
   -2.7188    1.1119    0.0000 C   0  0  0  0  0  0  0  0  0  0  0  0
   -3.4212    1.7636    0.0000 C   0  0  0  0  0  0  0  0  0  0  0  0
   -4.3368    1.4812    0.0000 C   0  0  0  0  0  0  0  0  0  0  0  0
   -5.0391    2.1329    0.0000 C   0  0  0  0  0  0  0  0  0  0  0  0
   -2.9320    0.1778    0.0000 C   0  0  0  0  0  0  0  0  0  0  0  0
   -3.8476   -0.1046    0.0000 O   0  0  0  0  0  0  0  0  0  0  0  0
   -2.2297   -0.4739    0.0000 O   0  0  0  0  0  0  0  0  0  0  0  0
   -0.3986    0.0910    0.0000 C   0  0  2  0  0  0  0  0  0  0  0  0
   -1.1009    0.7427    0.0000 H   0  0  0  0  0  0  0  0  0  0  0  0
   -0.2450   -0.5817    0.0000 C   0  0  0  0  0  0  0  0  0  0  0  0
    0.3766   -0.8810    0.0000 C   0  0  2  0  0  0  0  0  0  0  0  0
    0.4098   -1.8386    0.0000 H   0  0  0  0  0  0  0  0  0  0  0  0
    1.3308   -0.7951    0.0000 C   0  0  0  0  0  0  0  0  0  0  0  0
    1.5440    0.1390    0.0000 C   0  0  0  0  0  0  0  0  0  0  0  0
    0.7215    0.6304    0.0000 C   0  0  2  0  0  0  0  0  0  0  0  0
    1.1669    1.4787    0.0000 H   0  0  0  0  0  0  0  0  0  0  0  0
    0.0316    0.6304    0.0000 C   0  0  0  0  0  0  0  0  0  0  0  0
   -0.0000   -0.0000    0.0000 N   0  3  0  0  0  0  0  0  0  0  0  0
   -0.7024    0.6517    0.0000 C   0  0  0  0  0  0  0  0  0  0  0  0
   -0.9156   -0.2824    0.0000 C   0  0  0  0  0  0  0  0  0  0  0  0
  1  2  1  0  0  0  0
  2  3  1  0  0  0  0
  3  4  1  0  0  0  0
  4  5  1  0  0  0  0
  4  8  1  0  0  0  0
  5  6  1  0  0  0  0
  6  7  1  0  0  0  0
  8  9  2  0  0  0  0
  8 10  1  0  0  0  0
 10 11  1  0  0  0  0
 11 12  1  6  0  0  0
 11 20  1  0  0  0  0
 11 13  1  0  0  0  0
 13 14  1  0  0  0  0
 14 15  1  6  0  0  0
 14 21  1  0  0  0  0
 14 16  1  0  0  0  0
 16 17  1  0  0  0  0
 17 18  1  0  0  0  0
 18 19  1  6  0  0  0
 18 20  1  0  0  0  0
 18 21  1  0  0  0  0
 21 22  1  0  0  0  0
 21 23  1  0  0  0  0
M  CHG  1  21   1
M  END
$$$$

 OpenBabel10082008492D

 13 15  0  0  1  0  0  0  0  0999 V2000
    2.6758   -0.2936    0.0000 C   0  0  0  0  0  0  0  0  0  0  0  0
    2.1275    0.4520    0.0000 C   0  0  3  0  0  0  0  0  0  0  0  0
    2.4991    1.2997    0.0000 N   0  0  0  0  0  0  0  0  0  0  0  0
    1.2076    0.3500    0.0000 C   0  0  3  0  0  0  0  0  0  0  0  0
    1.2076    1.4700    0.0000 C   0  0  0  0  0  0  0  0  0  0  0  0
    0.2981    1.9951    0.0000 C   0  0  3  0  0  0  0  0  0  0  0  0
   -0.6112    1.4701    0.0000 C   0  0  0  0  0  0  0  0  0  0  0  0
   -0.6112    0.4208    0.0000 C   0  0  3  0  0  0  0  0  0  0  0  0
   -0.0318   -0.3493    0.0000 C   0  0  0  0  0  0  0  0  0  0  0  0
    0.8237   -0.0691    0.0000 C   0  0  3  0  0  0  0  0  0  0  0  0
    0.8237    1.0859    0.0000 C   0  0  0  0  0  0  0  0  0  0  0  0
    1.8140   -0.3493    0.0000 C   0  0  0  0  0  0  0  0  0  0  0  0
   -0.0000   -0.0000    0.0000 C   0  0  0  0  0  0  0  0  0  0  0  0
  1  2  1  0  0  0  0
  2  3  1  0  0  0  0
  2  4  1  0  0  0  0
  4 12  1  0  0  0  0
  4 13  1  0  0  0  0
  4  5  1  0  0  0  0
  5  6  1  0  0  0  0
  6 11  1  0  0  0  0
  6  7  1  0  0  0  0
  7  8  1  0  0  0  0
  8  9  1  0  0  0  0
  8 13  1  0  0  0  0
  9 10  1  0  0  0  0
 10 11  1  0  0  0  0
 10 12  1  0  0  0  0
M  END
$$$$

 OpenBabel10082008492D

 15 15  0  0  1  0  0  0  0  0999 V2000
   -1.2972   -2.2799    0.0000 C   0  0  0  0  0  0  0  0  0  0  0  0
   -0.3916   -2.0372    0.0000 C   0  0  0  0  0  0  0  0  0  0  0  0
   -0.1490   -1.1317    0.0000 C   0  0  3  0  0  0  0  0  0  0  0  0
    1.6621   -0.6464    0.0000 C   0  0  0  0  0  0  0  0  0  0  0  0
   -0.8119   -0.4688    0.0000 C   0  0  0  0  0  0  0  0  0  0  0  0
   -1.6780   -0.8275    0.0000 C   0  0  0  0  0  0  0  0  0  0  0  0
   -1.8004   -1.7570    0.0000 C   0  0  0  0  0  0  0  0  0  0  0  0
   -1.6238   -0.0000    0.0000 C   0  0  0  0  0  0  0  0  0  0  0  0
   -2.4357   -0.4688    0.0000 O   0  0  0  0  0  0  0  0  0  0  0  0
   -1.6238    0.9375    0.0000 N   0  0  0  0  0  0  0  0  0  0  0  0
   -0.8119    1.4062    0.0000 C   0  0  0  0  0  0  0  0  0  0  0  0
   -0.8119    2.3437    0.0000 O   0  0  0  0  0  0  0  0  0  0  0  0
   -0.0000    0.9375    0.0000 N   0  0  0  0  0  0  0  0  0  0  0  0
    0.0000    0.0000    0.0000 C   0  0  0  0  0  0  0  0  0  0  0  0
    0.8119   -0.4687    0.0000 O   0  0  0  0  0  0  0  0  0  0  0  0
  1  2  1  0  0  0  0
  2  3  1  0  0  0  0
  3  4  1  0  0  0  0
  3  5  1  0  0  0  0
  5 14  1  0  0  0  0
  5  6  1  0  0  0  0
  5  8  1  0  0  0  0
  6  7  1  0  0  0  0
  8  9  2  0  0  0  0
  8 10  1  0  0  0  0
 10 11  1  0  0  0  0
 11 12  2  0  0  0  0
 11 13  1  0  0  0  0
 13 14  1  0  0  0  0
 14 15  2  0  0  0  0
M  END
$$$$

 OpenBabel10082008492D

 29 31  0  0  0  0  0  0  0  0999 V2000
   -1.0000   -1.0000    0.0000 O   0  0  0  0  0  0  0  0  0  0  0  0
    0.0000   -1.0000    0.0000 S   0  0  0  0  0  0  0  0  0  0  0  0
    0.0000   -2.0000    0.0000 O   0  0  0  0  0  0  0  0  0  0  0  0
    1.0000   -1.0000    0.0000 O   0  0  0  0  0  0  0  0  0  0  0  0
    0.0000    0.0000    0.0000 O   0  0  0  0  0  0  0  0  0  0  0  0
    0.8660    0.5000    0.0000 C   0  0  0  0  0  0  0  0  0  0  0  0
    0.8660    1.5000    0.0000 C   0  0  0  0  0  0  0  0  0  0  0  0
    1.7321    2.0000    0.0000 C   0  0  0  0  0  0  0  0  0  0  0  0
    2.5981    1.5000    0.0000 C   0  0  0  0  0  0  0  0  0  0  0  0
    3.4641    2.0000    0.0000 C   0  0  0  0  0  0  0  0  0  0  0  0
    4.3301    1.5000    0.0000 C   0  0  0  0  0  0  0  0  0  0  0  0
    5.1962    2.0000    0.0000 C   0  0  0  0  0  0  0  0  0  0  0  0
    6.0622    1.5000    0.0000 C   0  0  0  0  0  0  0  0  0  0  0  0
    6.0622    0.5000    0.0000 C   0  0  0  0  0  0  0  0  0  0  0  0
    6.9282    0.0000    0.0000 O   0  0  0  0  0  0  0  0  0  0  0  0
    6.9282   -1.0000    0.0000 S   0  0  0  0  0  0  0  0  0  0  0  0
    5.9282   -1.0000    0.0000 O   0  0  0  0  0  0  0  0  0  0  0  0
    6.9282   -2.0000    0.0000 O   0  0  0  0  0  0  0  0  0  0  0  0
    7.9282   -1.0000    0.0000 O   0  0  0  0  0  0  0  0  0  0  0  0
    5.1962    0.0000    0.0000 C   0  0  0  0  0  0  0  0  0  0  0  0
    4.3301    0.5000    0.0000 C   0  0  0  0  0  0  0  0  0  0  0  0
    3.4641    3.0000    0.0000 C   0  0  0  0  0  0  0  0  0  0  0  0
    2.5981    3.5000    0.0000 C   0  0  0  0  0  0  0  0  0  0  0  0
    2.5981    4.5000    0.0000 C   0  0  0  0  0  0  0  0  0  0  0  0
    3.4641    5.0000    0.0000 C   0  0  0  0  0  0  0  0  0  0  0  0
    4.3301    4.5000    0.0000 C   0  0  0  0  0  0  0  0  0  0  0  0
    4.3301    3.5000    0.0000 N   0  0  0  0  0  0  0  0  0  0  0  0
    2.5981    0.5000    0.0000 C   0  0  0  0  0  0  0  0  0  0  0  0
    1.7321    0.0000    0.0000 C   0  0  0  0  0  0  0  0  0  0  0  0
  1  2  2  0  0  0  0
  2  3  2  0  0  0  0
  2  4  1  0  0  0  0
  2  5  1  0  0  0  0
  5  6  1  0  0  0  0
  6 29  1  0  0  0  0
  6  7  2  0  0  0  0
  7  8  1  0  0  0  0
  8  9  2  0  0  0  0
  9 10  1  0  0  0  0
  9 28  1  0  0  0  0
 10 11  1  0  0  0  0
 10 22  1  0  0  0  0
 11 21  1  0  0  0  0
 11 12  2  0  0  0  0
 12 13  1  0  0  0  0
 13 14  2  0  0  0  0
 14 15  1  0  0  0  0
 14 20  1  0  0  0  0
 15 16  1  0  0  0  0
 16 17  2  0  0  0  0
 16 18  2  0  0  0  0
 16 19  1  0  0  0  0
 20 21  2  0  0  0  0
 22 27  1  0  0  0  0
 22 23  2  0  0  0  0
 23 24  1  0  0  0  0
 24 25  2  0  0  0  0
 25 26  1  0  0  0  0
 26 27  2  0  0  0  0
 28 29  2  0  0  0  0
M  END
$$$$

 OpenBabel10082008492D

 16 17  0  0  0  0  0  0  0  0999 V2000
   -6.8690   -2.0000    0.0000 C   0  0  0  0  0  0  0  0  0  0  0  0
   -6.0029   -1.5000    0.0000 C   0  0  0  0  0  0  0  0  0  0  0  0
   -5.1369   -2.0000    0.0000 O   0  0  0  0  0  0  0  0  0  0  0  0
   -4.2709   -1.5000    0.0000 C   0  0  0  0  0  0  0  0  0  0  0  0
   -4.2709   -0.5000    0.0000 C   0  0  0  0  0  0  0  0  0  0  0  0
   -3.4049   -0.0000    0.0000 C   0  0  0  0  0  0  0  0  0  0  0  0
   -2.5388   -0.5000    0.0000 C   0  0  0  0  0  0  0  0  0  0  0  0
   -1.5878   -0.1910    0.0000 N   0  0  0  0  0  0  0  0  0  0  0  0
   -1.0000   -1.0000    0.0000 C   0  0  0  0  0  0  0  0  0  0  0  0
    0.0000   -1.0000    0.0000 S   0  0  0  0  0  0  0  0  0  0  0  0
    0.0000   -2.0000    0.0000 N   0  0  0  0  0  0  0  0  0  0  0  0
    1.0000   -1.0000    0.0000 O   0  0  0  0  0  0  0  0  0  0  0  0
    0.0000   -0.0000    0.0000 O   0  0  0  0  0  0  0  0  0  0  0  0
   -1.5878   -1.8090    0.0000 S   0  0  0  0  0  0  0  0  0  0  0  0
   -2.5388   -1.5000    0.0000 C   0  0  0  0  0  0  0  0  0  0  0  0
   -3.4049   -2.0000    0.0000 C   0  0  0  0  0  0  0  0  0  0  0  0
  1  2  1  0  0  0  0
  2  3  1  0  0  0  0
  3  4  1  0  0  0  0
  4 16  1  0  0  0  0
  4  5  2  0  0  0  0
  5  6  1  0  0  0  0
  6  7  2  0  0  0  0
  7 15  1  0  0  0  0
  7  8  1  0  0  0  0
  8  9  2  0  0  0  0
  9 10  1  0  0  0  0
  9 14  1  0  0  0  0
 10 11  1  0  0  0  0
 10 12  2  0  0  0  0
 10 13  2  0  0  0  0
 14 15  1  0  0  0  0
 15 16  2  0  0  0  0
M  END
$$$$

 OpenBabel10082008492D

 31 34  0  0  1  0  0  0  0  0999 V2000
    1.7321   -1.0000    0.0000 C   0  0  0  0  0  0  0  0  0  0  0  0
    0.8660   -1.5000    0.0000 C   0  0  0  0  0  0  0  0  0  0  0  0
    0.3660   -2.3660    0.0000 C   0  0  0  0  0  0  0  0  0  0  0  0
    1.3660   -2.3660    0.0000 C   0  0  0  0  0  0  0  0  0  0  0  0
   -0.0000   -1.0000    0.0000 C   0  0  0  0  0  0  0  0  0  0  0  0
   -0.8660   -1.5000    0.0000 C   0  0  0  0  0  0  0  0  0  0  0  0
   -1.7321   -1.0000    0.0000 C   0  0  0  0  0  0  0  0  0  0  0  0
   -1.7321   -0.0000    0.0000 C   0  0  0  0  0  0  0  0  0  0  0  0
   -2.5981    0.5000    0.0000 C   0  0  0  0  0  0  0  0  0  0  0  0
   -3.4641    0.0000    0.0000 N   0  0  0  0  0  0  0  0  0  0  0  0
   -3.4641   -1.0000    0.0000 C   0  0  0  0  0  0  0  0  0  0  0  0
   -4.3301   -1.5000    0.0000 C   0  0  0  0  0  0  0  0  0  0  0  0
   -5.1962   -1.0000    0.0000 N   0  0  0  0  0  0  0  0  0  0  0  0
   -6.0622   -1.5000    0.0000 C   0  0  3  0  0  0  0  0  0  0  0  0
   -6.9282   -1.0000    0.0000 C   0  0  0  0  0  0  0  0  0  0  0  0
   -7.7942   -1.5000    0.0000 C   0  0  0  0  0  0  0  0  0  0  0  0
   -8.6603   -1.0000    0.0000 C   0  0  0  0  0  0  0  0  0  0  0  0
   -8.6603    0.0000    0.0000 C   0  0  0  0  0  0  0  0  0  0  0  0
   -7.7942    0.5000    0.0000 C   0  0  0  0  0  0  0  0  0  0  0  0
   -6.9282    0.0000    0.0000 C   0  0  0  0  0  0  0  0  0  0  0  0
   -6.0622   -2.5000    0.0000 C   0  0  0  0  0  0  0  0  0  0  0  0
   -5.1962   -3.0000    0.0000 C   0  0  0  0  0  0  0  0  0  0  0  0
   -5.1962   -4.0000    0.0000 C   0  0  0  0  0  0  0  0  0  0  0  0
   -6.0622   -4.5000    0.0000 C   0  0  0  0  0  0  0  0  0  0  0  0
   -6.0622   -5.5000    0.0000 Cl  0  0  0  0  0  0  0  0  0  0  0  0
   -6.9282   -4.0000    0.0000 C   0  0  0  0  0  0  0  0  0  0  0  0
   -6.9282   -3.0000    0.0000 C   0  0  0  0  0  0  0  0  0  0  0  0
   -5.1962    0.0000    0.0000 C   0  0  0  0  0  0  0  0  0  0  0  0
   -4.3301    0.5000    0.0000 C   0  0  0  0  0  0  0  0  0  0  0  0
   -0.8660    0.5000    0.0000 C   0  0  0  0  0  0  0  0  0  0  0  0
    0.0000   -0.0000    0.0000 C   0  0  0  0  0  0  0  0  0  0  0  0
  1  2  1  0  0  0  0
  2  3  1  0  0  0  0
  2  4  1  0  0  0  0
  2  5  1  0  0  0  0
  5 31  1  0  0  0  0
  5  6  2  0  0  0  0
  6  7  1  0  0  0  0
  7  8  2  0  0  0  0
  8  9  1  0  0  0  0
  8 30  1  0  0  0  0
  9 10  1  0  0  0  0
 10 29  1  0  0  0  0
 10 11  1  0  0  0  0
 11 12  1  0  0  0  0
 12 13  1  0  0  0  0
 13 14  1  0  0  0  0
 13 28  1  0  0  0  0
 14 15  1  0  0  0  0
 14 21  1  0  0  0  0
 15 20  1  0  0  0  0
 15 16  2  0  0  0  0
 16 17  1  0  0  0  0
 17 18  2  0  0  0  0
 18 19  1  0  0  0  0
 19 20  2  0  0  0  0
 21 27  1  0  0  0  0
 21 22  2  0  0  0  0
 22 23  1  0  0  0  0
 23 24  2  0  0  0  0
 24 25  1  0  0  0  0
 24 26  1  0  0  0  0
 26 27  2  0  0  0  0
 28 29  1  0  0  0  0
 30 31  2  0  0  0  0
M  END
$$$$

 OpenBabel10082008492D

 20 21  0  0  1  0  0  0  0  0999 V2000
    1.7321    4.0000    0.0000 C   0  0  0  0  0  0  0  0  0  0  0  0
    0.8660    4.5000    0.0000 N   0  0  0  0  0  0  0  0  0  0  0  0
    0.8660    5.5000    0.0000 C   0  0  0  0  0  0  0  0  0  0  0  0
    0.0000    4.0000    0.0000 C   0  0  0  0  0  0  0  0  0  0  0  0
    0.0000    3.0000    0.0000 C   0  0  0  0  0  0  0  0  0  0  0  0
   -0.8660    2.5000    0.0000 O   0  0  0  0  0  0  0  0  0  0  0  0
   -0.8660    1.5000    0.0000 C   0  0  3  0  0  0  0  0  0  0  0  0
   -1.7321    1.0000    0.0000 C   0  0  0  0  0  0  0  0  0  0  0  0
   -1.7321    0.0000    0.0000 C   0  0  0  0  0  0  0  0  0  0  0  0
   -2.5981   -0.5000    0.0000 C   0  0  0  0  0  0  0  0  0  0  0  0
   -3.4641    0.0000    0.0000 C   0  0  0  0  0  0  0  0  0  0  0  0
   -3.4641    1.0000    0.0000 C   0  0  0  0  0  0  0  0  0  0  0  0
   -2.5981    1.5000    0.0000 C   0  0  0  0  0  0  0  0  0  0  0  0
    0.0000    1.0000    0.0000 C   0  0  0  0  0  0  0  0  0  0  0  0
    0.8660    1.5000    0.0000 C   0  0  0  0  0  0  0  0  0  0  0  0
    1.7321    1.0000    0.0000 C   0  0  0  0  0  0  0  0  0  0  0  0
    1.7321   -0.0000    0.0000 C   0  0  0  0  0  0  0  0  0  0  0  0
    2.5981   -0.5000    0.0000 Br  0  0  0  0  0  0  0  0  0  0  0  0
    0.8660   -0.5000    0.0000 C   0  0  0  0  0  0  0  0  0  0  0  0
   -0.0000   -0.0000    0.0000 C   0  0  0  0  0  0  0  0  0  0  0  0
  1  2  1  0  0  0  0
  2  3  1  0  0  0  0
  2  4  1  0  0  0  0
  4  5  1  0  0  0  0
  5  6  1  0  0  0  0
  6  7  1  0  0  0  0
  7  8  1  0  0  0  0
  7 14  1  0  0  0  0
  8 13  1  0  0  0  0
  8  9  2  0  0  0  0
  9 10  1  0  0  0  0
 10 11  2  0  0  0  0
 11 12  1  0  0  0  0
 12 13  2  0  0  0  0
 14 20  1  0  0  0  0
 14 15  2  0  0  0  0
 15 16  1  0  0  0  0
 16 17  2  0  0  0  0
 17 18  1  0  0  0  0
 17 19  1  0  0  0  0
 19 20  2  0  0  0  0
M  END
$$$$

 OpenBabel10082008492D

 20 21  0  0  1  0  0  0  0  0999 V2000
    0.6340    4.0981    0.0000 C   0  0  0  0  0  0  0  0  0  0  0  0
   -0.3660    4.0981    0.0000 N   0  0  0  0  0  0  0  0  0  0  0  0
   -0.8660    4.9641    0.0000 C   0  0  0  0  0  0  0  0  0  0  0  0
   -0.8660    3.2321    0.0000 C   0  0  0  0  0  0  0  0  0  0  0  0
   -0.3660    2.3660    0.0000 C   0  0  0  0  0  0  0  0  0  0  0  0
   -0.8660    1.5000    0.0000 C   0  0  1  0  0  0  0  0  0  0  0  0
   -1.7321    2.0000    0.0000 H   0  0  0  0  0  0  0  0  0  0  0  0
   -1.3660    0.6340    0.0000 C   0  0  0  0  0  0  0  0  0  0  0  0
   -0.8660   -0.2321    0.0000 C   0  0  0  0  0  0  0  0  0  0  0  0
   -1.3660   -1.0981    0.0000 C   0  0  0  0  0  0  0  0  0  0  0  0
   -2.3660   -1.0981    0.0000 C   0  0  0  0  0  0  0  0  0  0  0  0
   -2.8660   -1.9641    0.0000 Br  0  0  0  0  0  0  0  0  0  0  0  0
   -2.8660   -0.2321    0.0000 C   0  0  0  0  0  0  0  0  0  0  0  0
   -2.3660    0.6340    0.0000 C   0  0  0  0  0  0  0  0  0  0  0  0
   -0.0000    1.0000    0.0000 C   0  0  0  0  0  0  0  0  0  0  0  0
    0.8660    1.5000    0.0000 C   0  0  0  0  0  0  0  0  0  0  0  0
    1.7321    1.0000    0.0000 C   0  0  0  0  0  0  0  0  0  0  0  0
    1.7321   -0.0000    0.0000 C   0  0  0  0  0  0  0  0  0  0  0  0
    0.8660   -0.5000    0.0000 C   0  0  0  0  0  0  0  0  0  0  0  0
   -0.0000   -0.0000    0.0000 N   0  0  0  0  0  0  0  0  0  0  0  0
  1  2  1  0  0  0  0
  2  3  1  0  0  0  0
  2  4  1  0  0  0  0
  4  5  1  0  0  0  0
  5  6  1  0  0  0  0
  6  7  1  1  0  0  0
  6  8  1  0  0  0  0
  6 15  1  0  0  0  0
  8 14  1  0  0  0  0
  8  9  2  0  0  0  0
  9 10  1  0  0  0  0
 10 11  2  0  0  0  0
 11 12  1  0  0  0  0
 11 13  1  0  0  0  0
 13 14  2  0  0  0  0
 15 20  1  0  0  0  0
 15 16  2  0  0  0  0
 16 17  1  0  0  0  0
 17 18  2  0  0  0  0
 18 19  1  0  0  0  0
 19 20  2  0  0  0  0
M  END
$$$$

 OpenBabel10082008492D

 16 16  0  0  1  0  0  0  0  0999 V2000
   -1.2321   -2.8660    0.0000 C   0  0  0  0  0  0  0  0  0  0  0  0
   -1.7321   -2.0000    0.0000 C   0  0  1  0  0  0  0  0  0  0  0  0
   -0.8660   -1.5000    0.0000 C   0  0  0  0  0  0  0  0  0  0  0  0
   -0.8660   -0.5000    0.0000 C   0  0  0  0  0  0  0  0  0  0  0  0
   -1.7321   -0.0000    0.0000 C   0  0  0  0  0  0  0  0  0  0  0  0
   -1.7321    1.0000    0.0000 C   0  0  0  0  0  0  0  0  0  0  0  0
   -0.8660    1.5000    0.0000 C   0  0  0  0  0  0  0  0  0  0  0  0
   -0.8660    2.5000    0.0000 O   0  0  0  0  0  0  0  0  0  0  0  0
   -0.0000    1.0000    0.0000 C   0  0  0  0  0  0  0  0  0  0  0  0
    0.8660    1.5000    0.0000 O   0  0  0  0  0  0  0  0  0  0  0  0
   -0.0000   -0.0000    0.0000 C   0  0  0  0  0  0  0  0  0  0  0  0
   -2.2321   -1.1340    0.0000 N   0  0  0  0  0  0  0  0  0  0  0  0
   -3.2321   -1.1340    0.0000 N   0  0  0  0  0  0  0  0  0  0  0  0
   -2.5981   -2.5000    0.0000 C   0  0  0  0  0  0  0  0  0  0  0  0
   -3.4641   -2.0000    0.0000 O   0  0  0  0  0  0  0  0  0  0  0  0
   -2.5981   -3.5000    0.0000 O   0  0  0  0  0  0  0  0  0  0  0  0
  2  1  1  6  0  0  0
  2  3  1  0  0  0  0
  2 12  1  0  0  0  0
  2 14  1  0  0  0  0
  3  4  1  0  0  0  0
  4 11  1  0  0  0  0
  4  5  2  0  0  0  0
  5  6  1  0  0  0  0
  6  7  2  0  0  0  0
  7  8  1  0  0  0  0
  7  9  1  0  0  0  0
  9 10  1  0  0  0  0
  9 11  2  0  0  0  0
 12 13  1  0  0  0  0
 14 15  2  0  0  0  0
 14 16  1  0  0  0  0
M  END
$$$$

 OpenBabel10082008492D

 25 27  0  0  1  0  0  0  0  0999 V2000
    4.9641    2.1340    0.0000 C   0  0  0  0  0  0  0  0  0  0  0  0
    4.9641    1.1340    0.0000 N   0  0  0  0  0  0  0  0  0  0  0  0
    5.8301    0.6340    0.0000 C   0  0  0  0  0  0  0  0  0  0  0  0
    5.8301   -0.3660    0.0000 C   0  0  0  0  0  0  0  0  0  0  0  0
    4.9641   -0.8660    0.0000 C   0  0  0  0  0  0  0  0  0  0  0  0
    4.0981   -0.3660    0.0000 N   0  0  0  0  0  0  0  0  0  0  0  0
    4.0981    0.6340    0.0000 C   0  0  0  0  0  0  0  0  0  0  0  0
    3.2321    1.1340    0.0000 C   0  0  0  0  0  0  0  0  0  0  0  0
    2.3660    0.6340    0.0000 O   0  0  0  0  0  0  0  0  0  0  0  0
    2.3660   -0.3660    0.0000 C   0  0  0  0  0  0  0  0  0  0  0  0
    3.2321   -0.8660    0.0000 O   0  0  0  0  0  0  0  0  0  0  0  0
    1.5000   -0.8660    0.0000 C   0  0  3  0  0  0  0  0  0  0  0  0
    2.0000   -1.7321    0.0000 O   0  0  0  0  0  0  0  0  0  0  0  0
    0.6340   -1.3660    0.0000 C   0  0  0  0  0  0  0  0  0  0  0  0
   -0.2321   -0.8660    0.0000 C   0  0  0  0  0  0  0  0  0  0  0  0
   -1.0981   -1.3660    0.0000 C   0  0  0  0  0  0  0  0  0  0  0  0
   -1.0981   -2.3660    0.0000 C   0  0  0  0  0  0  0  0  0  0  0  0
   -0.2321   -2.8660    0.0000 C   0  0  0  0  0  0  0  0  0  0  0  0
    0.6340   -2.3660    0.0000 C   0  0  0  0  0  0  0  0  0  0  0  0
    1.0000    0.0000    0.0000 C   0  0  0  0  0  0  0  0  0  0  0  0
    1.5000    0.8660    0.0000 C   0  0  0  0  0  0  0  0  0  0  0  0
    1.0000    1.7321    0.0000 C   0  0  0  0  0  0  0  0  0  0  0  0
    0.0000    1.7321    0.0000 C   0  0  0  0  0  0  0  0  0  0  0  0
   -0.5000    0.8660    0.0000 C   0  0  0  0  0  0  0  0  0  0  0  0
    0.0000   -0.0000    0.0000 C   0  0  0  0  0  0  0  0  0  0  0  0
  1  2  1  0  0  0  0
  2  7  1  0  0  0  0
  2  3  1  0  0  0  0
  3  4  1  0  0  0  0
  4  5  1  0  0  0  0
  5  6  1  0  0  0  0
  6  7  2  0  0  0  0
  7  8  1  0  0  0  0
  8  9  1  0  0  0  0
  9 10  1  0  0  0  0
 10 11  2  0  0  0  0
 10 12  1  0  0  0  0
 12 13  1  0  0  0  0
 12 14  1  0  0  0  0
 12 20  1  0  0  0  0
 14 19  1  0  0  0  0
 14 15  2  0  0  0  0
 15 16  1  0  0  0  0
 16 17  2  0  0  0  0
 17 18  1  0  0  0  0
 18 19  2  0  0  0  0
 20 25  1  0  0  0  0
 20 21  1  0  0  0  0
 21 22  1  0  0  0  0
 22 23  1  0  0  0  0
 23 24  1  0  0  0  0
 24 25  1  0  0  0  0
M  END
$$$$

 OpenBabel10082008492D

 16 17  0  0  1  0  0  0  0  0999 V2000
   -1.9783   -0.9914    0.0000 C   0  0  0  0  0  0  0  0  0  0  0  0
   -1.0544   -0.6088    0.0000 C   0  0  0  0  0  0  0  0  0  0  0  0
   -0.9239    0.3827    0.0000 C   0  0  3  0  0  0  0  0  0  0  0  0
   -1.7899    0.8827    0.0000 C   0  0  0  0  0  0  0  0  0  0  0  0
   -2.6559    0.3827    0.0000 C   0  0  0  0  0  0  0  0  0  0  0  0
   -3.5220    0.8827    0.0000 C   0  0  0  0  0  0  0  0  0  0  0  0
   -3.5220    1.8827    0.0000 C   0  0  0  0  0  0  0  0  0  0  0  0
   -2.6559    2.3827    0.0000 C   0  0  0  0  0  0  0  0  0  0  0  0
   -1.7899    1.8827    0.0000 C   0  0  0  0  0  0  0  0  0  0  0  0
   -1.0544    1.3741    0.0000 C   0  0  0  0  0  0  0  0  0  0  0  0
   -0.2611    1.9829    0.0000 C   0  0  0  0  0  0  0  0  0  0  0  0
    0.6628    1.6002    0.0000 C   0  0  0  0  0  0  0  0  0  0  0  0
    1.4562    2.2090    0.0000 O   0  0  0  0  0  0  0  0  0  0  0  0
    0.7934    0.6088    0.0000 N   0  0  0  0  0  0  0  0  0  0  0  0
    0.0000    0.0000    0.0000 C   0  0  0  0  0  0  0  0  0  0  0  0
    0.1305   -0.9914    0.0000 O   0  0  0  0  0  0  0  0  0  0  0  0
  1  2  1  0  0  0  0
  2  3  1  0  0  0  0
  3 15  1  0  0  0  0
  3  4  1  0  0  0  0
  3 10  1  0  0  0  0
  4  9  1  0  0  0  0
  4  5  2  0  0  0  0
  5  6  1  0  0  0  0
  6  7  2  0  0  0  0
  7  8  1  0  0  0  0
  8  9  2  0  0  0  0
 10 11  1  0  0  0  0
 11 12  1  0  0  0  0
 12 13  2  0  0  0  0
 12 14  1  0  0  0  0
 14 15  1  0  0  0  0
 15 16  2  0  0  0  0
M  END
$$$$

 OpenBabel10082008492D

 20 23  0  0  1  0  0  0  0  0999 V2000
    0.3854   -1.6886    0.0000 C   0  0  0  0  0  0  0  0  0  0  0  0
   -0.2948   -0.9556    0.0000 N   0  0  0  0  0  0  0  0  0  0  0  0
   -1.2697   -1.1781    0.0000 C   0  0  0  0  0  0  0  0  0  0  0  0
   -1.9499   -0.4450    0.0000 C   0  0  0  0  0  0  0  0  0  0  0  0
   -1.6551    0.5105    0.0000 N   0  0  0  0  0  0  0  0  0  0  0  0
   -2.4369    1.1340    0.0000 C   0  0  0  0  0  0  0  0  0  0  0  0
   -3.3030    0.6340    0.0000 N   0  0  0  0  0  0  0  0  0  0  0  0
   -4.1690    1.1340    0.0000 C   0  0  0  0  0  0  0  0  0  0  0  0
   -4.1690    2.1340    0.0000 C   0  0  0  0  0  0  0  0  0  0  0  0
   -3.3030    2.6340    0.0000 C   0  0  0  0  0  0  0  0  0  0  0  0
   -2.4369    2.1340    0.0000 C   0  0  0  0  0  0  0  0  0  0  0  0
   -1.6551    2.7575    0.0000 C   0  0  0  0  0  0  0  0  0  0  0  0
   -0.6802    2.5350    0.0000 C   0  0  0  0  0  0  0  0  0  0  0  0
   -0.1169    3.3612    0.0000 C   0  0  0  0  0  0  0  0  0  0  0  0
    0.8804    3.2865    0.0000 C   0  0  0  0  0  0  0  0  0  0  0  0
    1.3142    2.3855    0.0000 C   0  0  0  0  0  0  0  0  0  0  0  0
    0.7509    1.5593    0.0000 C   0  0  0  0  0  0  0  0  0  0  0  0
   -0.2463    1.6340    0.0000 C   0  0  0  0  0  0  0  0  0  0  0  0
   -0.6802    0.7331    0.0000 C   0  0  3  0  0  0  0  0  0  0  0  0
   -0.0000   -0.0000    0.0000 C   0  0  0  0  0  0  0  0  0  0  0  0
  1  2  1  0  0  0  0
  2 20  1  0  0  0  0
  2  3  1  0  0  0  0
  3  4  1  0  0  0  0
  4  5  1  0  0  0  0
  5 19  1  0  0  0  0
  5  6  1  0  0  0  0
  6 11  1  0  0  0  0
  6  7  2  0  0  0  0
  7  8  1  0  0  0  0
  8  9  2  0  0  0  0
  9 10  1  0  0  0  0
 10 11  2  0  0  0  0
 11 12  1  0  0  0  0
 12 13  1  0  0  0  0
 13 18  1  0  0  0  0
 13 14  2  0  0  0  0
 14 15  1  0  0  0  0
 15 16  2  0  0  0  0
 16 17  1  0  0  0  0
 17 18  2  0  0  0  0
 18 19  1  0  0  0  0
 19 20  1  0  0  0  0
M  END
$$$$

 OpenBabel10082008492D

 21 23  0  0  0  0  0  0  0  0999 V2000
    0.8660    1.5000    0.0000 C   0  0  0  0  0  0  0  0  0  0  0  0
    0.8660    0.5000    0.0000 C   0  0  0  0  0  0  0  0  0  0  0  0
    1.7321    0.0000    0.0000 C   0  0  0  0  0  0  0  0  0  0  0  0
    1.7321   -1.0000    0.0000 C   0  0  0  0  0  0  0  0  0  0  0  0
    0.8660   -1.5000    0.0000 C   0  0  0  0  0  0  0  0  0  0  0  0
    0.8660   -2.5000    0.0000 C   0  0  0  0  0  0  0  0  0  0  0  0
    1.7321   -3.0000    0.0000 C   0  0  0  0  0  0  0  0  0  0  0  0
    2.5981   -2.5000    0.0000 C   0  0  0  0  0  0  0  0  0  0  0  0
    3.4641   -3.0000    0.0000 N   0  0  0  0  0  0  0  0  0  0  0  0
    3.5686   -3.9945    0.0000 C   0  0  0  0  0  0  0  0  0  0  0  0
    4.5468   -4.2024    0.0000 C   0  0  0  0  0  0  0  0  0  0  0  0
    5.0468   -3.3364    0.0000 C   0  0  0  0  0  0  0  0  0  0  0  0
    4.3776   -2.5933    0.0000 C   0  0  0  0  0  0  0  0  0  0  0  0
   -0.0000   -3.0000    0.0000 C   0  0  0  0  0  0  0  0  0  0  0  0
   -0.0000   -4.0000    0.0000 C   0  0  0  0  0  0  0  0  0  0  0  0
   -0.8660   -4.5000    0.0000 C   0  0  0  0  0  0  0  0  0  0  0  0
   -1.7321   -4.0000    0.0000 C   0  0  0  0  0  0  0  0  0  0  0  0
   -1.7321   -3.0000    0.0000 C   0  0  0  0  0  0  0  0  0  0  0  0
   -0.8660   -2.5000    0.0000 N   0  0  0  0  0  0  0  0  0  0  0  0
    0.0000   -1.0000    0.0000 C   0  0  0  0  0  0  0  0  0  0  0  0
    0.0000    0.0000    0.0000 C   0  0  0  0  0  0  0  0  0  0  0  0
  1  2  1  0  0  0  0
  2 21  1  0  0  0  0
  2  3  2  0  0  0  0
  3  4  1  0  0  0  0
  4  5  2  0  0  0  0
  5  6  1  0  0  0  0
  5 20  1  0  0  0  0
  6  7  2  0  0  0  0
  6 14  1  0  0  0  0
  7  8  1  0  0  0  0
  8  9  1  0  0  0  0
  9 13  1  0  0  0  0
  9 10  1  0  0  0  0
 10 11  1  0  0  0  0
 11 12  1  0  0  0  0
 12 13  1  0  0  0  0
 14 19  1  0  0  0  0
 14 15  2  0  0  0  0
 15 16  1  0  0  0  0
 16 17  2  0  0  0  0
 17 18  1  0  0  0  0
 18 19  2  0  0  0  0
 20 21  2  0  0  0  0
M  END
$$$$

 OpenBabel10082008492D

 24 26  0  0  1  0  0  0  0  0999 V2000
    0.2782    4.3090    0.0000 C   0  0  0  0  0  0  0  0  0  0  0  0
   -0.5878    3.8090    0.0000 N   0  0  0  0  0  0  0  0  0  0  0  0
   -1.4538    4.3090    0.0000 C   0  0  0  0  0  0  0  0  0  0  0  0
   -0.5878    2.8090    0.0000 C   0  0  0  0  0  0  0  0  0  0  0  0
   -1.4538    2.3090    0.0000 C   0  0  0  0  0  0  0  0  0  0  0  0
   -1.4538    1.3090    0.0000 C   0  0  0  0  0  0  0  0  0  0  0  0
   -0.5878    0.8090    0.0000 C   0  0  1  0  0  0  0  0  0  0  0  0
   -1.4538    0.3090    0.0000 C   0  0  0  0  0  0  0  0  0  0  0  0
   -1.4538   -0.6910    0.0000 C   0  0  0  0  0  0  0  0  0  0  0  0
   -2.3198   -1.1910    0.0000 C   0  0  0  0  0  0  0  0  0  0  0  0
   -3.1859   -0.6910    0.0000 C   0  0  0  0  0  0  0  0  0  0  0  0
   -4.0519   -1.1910    0.0000 F   0  0  0  0  0  0  0  0  0  0  0  0
   -3.1859    0.3090    0.0000 C   0  0  0  0  0  0  0  0  0  0  0  0
   -2.3198    0.8090    0.0000 C   0  0  0  0  0  0  0  0  0  0  0  0
   -0.0000    1.6180    0.0000 O   0  0  0  0  0  0  0  0  0  0  0  0
    0.9511    1.3090    0.0000 C   0  0  0  0  0  0  0  0  0  0  0  0
    0.9511    0.3090    0.0000 C   0  0  0  0  0  0  0  0  0  0  0  0
    1.6942   -0.3601    0.0000 C   0  0  0  0  0  0  0  0  0  0  0  0
    1.4863   -1.3383    0.0000 C   0  0  0  0  0  0  0  0  0  0  0  0
    2.2294   -2.0074    0.0000 C   0  0  0  0  0  0  0  0  0  0  0  0
    2.9726   -2.6765    0.0000 N   0  0  0  0  0  0  0  0  0  0  0  0
    0.5352   -1.6473    0.0000 C   0  0  0  0  0  0  0  0  0  0  0  0
   -0.2079   -0.9781    0.0000 C   0  0  0  0  0  0  0  0  0  0  0  0
    0.0000   -0.0000    0.0000 C   0  0  0  0  0  0  0  0  0  0  0  0
  1  2  1  0  0  0  0
  2  3  1  0  0  0  0
  2  4  1  0  0  0  0
  4  5  1  0  0  0  0
  5  6  1  0  0  0  0
  7  6  1  1  0  0  0
  7 24  1  0  0  0  0
  7  8  1  0  0  0  0
  7 15  1  0  0  0  0
  8 14  1  0  0  0  0
  8  9  2  0  0  0  0
  9 10  1  0  0  0  0
 10 11  2  0  0  0  0
 11 12  1  0  0  0  0
 11 13  1  0  0  0  0
 13 14  2  0  0  0  0
 15 16  1  0  0  0  0
 16 17  1  0  0  0  0
 17 24  1  0  0  0  0
 17 18  2  0  0  0  0
 18 19  1  0  0  0  0
 19 20  1  0  0  0  0
 19 22  2  0  0  0  0
 20 21  3  0  0  0  0
 22 23  1  0  0  0  0
 23 24  2  0  0  0  0
M  END
$$$$

 OpenBabel10082008492D

 10 12  0  0  1  0  0  0  0  0999 V2000
    1.2169    1.7862    0.0000 C   0  0  0  0  0  0  0  0  0  0  0  0
    0.3239    2.3018    0.0000 N   0  0  3  0  0  0  0  0  0  0  0  0
    0.8399    1.4090    0.0000 C   0  0  0  0  0  0  0  0  0  0  0  0
    0.8399    0.2750    0.0000 N   0  0  3  0  0  0  0  0  0  0  0  0
    1.8122   -0.0000    0.0000 C   0  0  0  0  0  0  0  0  0  0  0  0
    1.2169    0.6865    0.0000 N   0  0  3  0  0  0  0  0  0  0  0  0
    0.0312    0.3429    0.0000 C   0  0  0  0  0  0  0  0  0  0  0  0
   -0.5689    0.7561    0.0000 N   0  0  3  0  0  0  0  0  0  0  0  0
   -0.5689    1.7863    0.0000 C   0  0  0  0  0  0  0  0  0  0  0  0
   -0.0000   -0.0000    0.0000 C   0  0  0  0  0  0  0  0  0  0  0  0
  1  6  1  0  0  0  0
  1  2  1  0  0  0  0
  2  9  1  0  0  0  0
  2  3  1  0  0  0  0
  3  4  1  0  0  0  0
  4 10  1  0  0  0  0
  4  5  1  0  0  0  0
  5  6  1  0  0  0  0
  6  7  1  0  0  0  0
  7  8  1  0  0  0  0
  8  9  1  0  0  0  0
  8 10  1  0  0  0  0
M  END
$$$$

 OpenBabel10082008492D

 23 25  0  0  0  0  0  0  0  0999 V2000
   -1.8660   -1.5000    0.0000 O   0  0  0  0  0  0  0  0  0  0  0  0
   -0.8660   -1.5000    0.0000 C   0  0  0  0  0  0  0  0  0  0  0  0
   -0.8660   -2.5000    0.0000 C   0  0  0  0  0  0  0  0  0  0  0  0
   -1.7321   -3.0000    0.0000 C   0  0  0  0  0  0  0  0  0  0  0  0
   -2.5981   -2.5000    0.0000 C   0  0  0  0  0  0  0  0  0  0  0  0
   -3.4641   -3.0000    0.0000 N   0  0  0  0  0  0  0  0  0  0  0  0
   -4.3301   -2.5000    0.0000 C   0  0  0  0  0  0  0  0  0  0  0  0
   -5.1962   -3.0000    0.0000 C   0  0  0  0  0  0  0  0  0  0  0  0
   -5.1962   -4.0000    0.0000 C   0  0  0  0  0  0  0  0  0  0  0  0
   -4.3301   -4.5000    0.0000 C   0  0  0  0  0  0  0  0  0  0  0  0
   -3.4641   -4.0000    0.0000 C   0  0  0  0  0  0  0  0  0  0  0  0
    0.1340   -1.5000    0.0000 C   0  0  0  0  0  0  0  0  0  0  0  0
    0.6340   -0.6340    0.0000 C   0  0  0  0  0  0  0  0  0  0  0  0
    1.6340   -0.6340    0.0000 C   0  0  0  0  0  0  0  0  0  0  0  0
    2.1340   -1.5000    0.0000 C   0  0  0  0  0  0  0  0  0  0  0  0
    1.6340   -2.3660    0.0000 C   0  0  0  0  0  0  0  0  0  0  0  0
    0.6340   -2.3660    0.0000 C   0  0  0  0  0  0  0  0  0  0  0  0
   -0.8660   -0.5000    0.0000 C   0  0  0  0  0  0  0  0  0  0  0  0
   -1.7321   -0.0000    0.0000 C   0  0  0  0  0  0  0  0  0  0  0  0
   -1.7321    1.0000    0.0000 C   0  0  0  0  0  0  0  0  0  0  0  0
   -0.8660    1.5000    0.0000 C   0  0  0  0  0  0  0  0  0  0  0  0
   -0.0000    1.0000    0.0000 C   0  0  0  0  0  0  0  0  0  0  0  0
    0.0000    0.0000    0.0000 C   0  0  0  0  0  0  0  0  0  0  0  0
  1  2  1  0  0  0  0
  2  3  1  0  0  0  0
  2 12  1  0  0  0  0
  2 18  1  0  0  0  0
  3  4  1  0  0  0  0
  4  5  1  0  0  0  0
  5  6  1  0  0  0  0
  6 11  1  0  0  0  0
  6  7  1  0  0  0  0
  7  8  1  0  0  0  0
  8  9  1  0  0  0  0
  9 10  1  0  0  0  0
 10 11  1  0  0  0  0
 12 17  1  0  0  0  0
 12 13  2  0  0  0  0
 13 14  1  0  0  0  0
 14 15  2  0  0  0  0
 15 16  1  0  0  0  0
 16 17  2  0  0  0  0
 18 23  1  0  0  0  0
 18 19  2  0  0  0  0
 19 20  1  0  0  0  0
 20 21  2  0  0  0  0
 21 22  1  0  0  0  0
 22 23  2  0  0  0  0
M  END
$$$$

 OpenBabel10082008492D

 26 28  0  0  0  0  0  0  0  0999 V2000
    3.7638   -0.2765    0.0000 C   0  0  0  0  0  0  0  0  0  0  0  0
    2.7979   -0.0176    0.0000 C   0  0  0  0  0  0  0  0  0  0  0  0
    2.0908   -0.7247    0.0000 O   0  0  0  0  0  0  0  0  0  0  0  0
    1.1248   -0.4659    0.0000 C   0  0  0  0  0  0  0  0  0  0  0  0
    0.4177   -1.1730    0.0000 O   0  0  0  0  0  0  0  0  0  0  0  0
    0.8660    0.5000    0.0000 C   0  0  0  0  0  0  0  0  0  0  0  0
    1.6594    1.1088    0.0000 C   0  0  0  0  0  0  0  0  0  0  0  0
    2.5833    0.7261    0.0000 C   0  0  0  0  0  0  0  0  0  0  0  0
    3.3766    1.3348    0.0000 C   0  0  0  0  0  0  0  0  0  0  0  0
    3.2461    2.3263    0.0000 C   0  0  0  0  0  0  0  0  0  0  0  0
    2.3222    2.7090    0.0000 C   0  0  0  0  0  0  0  0  0  0  0  0
    1.5289    2.1002    0.0000 C   0  0  0  0  0  0  0  0  0  0  0  0
    0.8660    1.5000    0.0000 C   0  0  0  0  0  0  0  0  0  0  0  0
    0.0000    2.0000    0.0000 C   0  0  0  0  0  0  0  0  0  0  0  0
   -0.8660    1.5000    0.0000 N   0  0  0  0  0  0  0  0  0  0  0  0
   -1.7321    2.0000    0.0000 C   0  0  0  0  0  0  0  0  0  0  0  0
   -2.5981    1.5000    0.0000 C   0  0  0  0  0  0  0  0  0  0  0  0
   -3.4641    2.0000    0.0000 C   0  0  0  0  0  0  0  0  0  0  0  0
   -3.4641    3.0000    0.0000 C   0  0  0  0  0  0  0  0  0  0  0  0
   -4.3301    3.5000    0.0000 C   0  0  0  0  0  0  0  0  0  0  0  0
   -5.1962    3.0000    0.0000 C   0  0  0  0  0  0  0  0  0  0  0  0
   -6.0622    3.5000    0.0000 N   0  0  0  0  0  0  0  0  0  0  0  0
   -5.1962    2.0000    0.0000 C   0  0  0  0  0  0  0  0  0  0  0  0
   -4.3301    1.5000    0.0000 C   0  0  0  0  0  0  0  0  0  0  0  0
   -0.8660    0.5000    0.0000 C   0  0  0  0  0  0  0  0  0  0  0  0
   -0.0000   -0.0000    0.0000 C   0  0  0  0  0  0  0  0  0  0  0  0
  1  2  1  0  0  0  0
  2  3  1  0  0  0  0
  3  4  1  0  0  0  0
  4  5  2  0  0  0  0
  4  6  1  0  0  0  0
  6 26  1  0  0  0  0
  6  7  1  0  0  0  0
  6 13  1  0  0  0  0
  7 12  1  0  0  0  0
  7  8  2  0  0  0  0
  8  9  1  0  0  0  0
  9 10  2  0  0  0  0
 10 11  1  0  0  0  0
 11 12  2  0  0  0  0
 13 14  1  0  0  0  0
 14 15  1  0  0  0  0
 15 16  1  0  0  0  0
 15 25  1  0  0  0  0
 16 17  1  0  0  0  0
 17 18  1  0  0  0  0
 18 24  1  0  0  0  0
 18 19  2  0  0  0  0
 19 20  1  0  0  0  0
 20 21  2  0  0  0  0
 21 22  1  0  0  0  0
 21 23  1  0  0  0  0
 23 24  2  0  0  0  0
 25 26  1  0  0  0  0
M  END
$$$$

 OpenBabel10082008492D

 44 42  0  0  0  0  0  0  0  0999 V2000
    1.3660   -7.7321    0.0000 C   0  0  0  0  0  0  0  0  0  0  0  0
    0.5000   -7.2321    0.0000 C   0  0  0  0  0  0  0  0  0  0  0  0
    0.5000   -6.2321    0.0000 N   0  0  0  0  0  0  0  0  0  0  0  0
    1.3660   -5.7321    0.0000 C   0  0  0  0  0  0  0  0  0  0  0  0
    2.2321   -6.2321    0.0000 C   0  0  0  0  0  0  0  0  0  0  0  0
    2.2321   -7.2321    0.0000 N   0  0  0  0  0  0  0  0  0  0  0  0
   11.9641   -6.2321    0.0000 C   0  0  0  0  0  0  0  0  0  0  0  0
   11.9641   -7.2321    0.0000 C   0  0  0  0  0  0  0  0  0  0  0  0
   11.0981   -7.7321    0.0000 N   0  0  0  0  0  0  0  0  0  0  0  0
   10.2321   -7.2321    0.0000 C   0  0  0  0  0  0  0  0  0  0  0  0
   10.2321   -6.2321    0.0000 C   0  0  0  0  0  0  0  0  0  0  0  0
   11.0981   -5.7321    0.0000 N   0  0  0  0  0  0  0  0  0  0  0  0
    7.3660   -7.7321    0.0000 C   0  0  0  0  0  0  0  0  0  0  0  0
    6.5000   -7.2321    0.0000 C   0  0  0  0  0  0  0  0  0  0  0  0
    6.5000   -6.2321    0.0000 N   0  0  0  0  0  0  0  0  0  0  0  0
    7.3660   -5.7321    0.0000 C   0  0  0  0  0  0  0  0  0  0  0  0
    8.2321   -6.2321    0.0000 C   0  0  0  0  0  0  0  0  0  0  0  0
    8.2321   -7.2321    0.0000 N   0  0  0  0  0  0  0  0  0  0  0  0
    8.0000   -0.5000    0.0000 O   0  0  0  0  0  0  0  0  0  0  0  0
    7.5000   -1.3660    0.0000 C   0  0  0  0  0  0  0  0  0  0  0  0
    6.5000   -1.3660    0.0000 O   0  0  0  0  0  0  0  0  0  0  0  0
    8.0000   -2.2321    0.0000 C   0  0  0  0  0  0  0  0  0  0  0  0
    9.0000   -2.2321    0.0000 C   0  0  0  0  0  0  0  0  0  0  0  0
    9.0000   -1.2321    0.0000 O   0  0  0  0  0  0  0  0  0  0  0  0
   10.0000   -2.2321    0.0000 C   0  0  0  0  0  0  0  0  0  0  0  0
   10.5000   -1.3660    0.0000 C   0  0  0  0  0  0  0  0  0  0  0  0
   10.0000   -0.5000    0.0000 O   0  0  0  0  0  0  0  0  0  0  0  0
   11.5000   -1.3660    0.0000 O   0  0  0  0  0  0  0  0  0  0  0  0
    9.0000   -3.2321    0.0000 C   0  0  0  0  0  0  0  0  0  0  0  0
    9.8660   -3.7321    0.0000 O   0  0  0  0  0  0  0  0  0  0  0  0
    8.1340   -3.7321    0.0000 O   0  0  0  0  0  0  0  0  0  0  0  0
    4.0000   -3.7321    0.0000 O   0  0  0  0  0  0  0  0  0  0  0  0
    4.5000   -2.8660    0.0000 C   0  0  0  0  0  0  0  0  0  0  0  0
    5.5000   -2.8660    0.0000 O   0  0  0  0  0  0  0  0  0  0  0  0
    4.0000   -2.0000    0.0000 C   0  0  0  0  0  0  0  0  0  0  0  0
    3.0000   -2.0000    0.0000 C   0  0  0  0  0  0  0  0  0  0  0  0
    3.0000   -3.0000    0.0000 O   0  0  0  0  0  0  0  0  0  0  0  0
    2.0000   -2.0000    0.0000 C   0  0  0  0  0  0  0  0  0  0  0  0
    1.5000   -2.8660    0.0000 C   0  0  0  0  0  0  0  0  0  0  0  0
    2.0000   -3.7321    0.0000 O   0  0  0  0  0  0  0  0  0  0  0  0
    0.5000   -2.8660    0.0000 O   0  0  0  0  0  0  0  0  0  0  0  0
    3.0000   -1.0000    0.0000 C   0  0  0  0  0  0  0  0  0  0  0  0
    2.1340   -0.5000    0.0000 O   0  0  0  0  0  0  0  0  0  0  0  0
    3.8660   -0.5000    0.0000 O   0  0  0  0  0  0  0  0  0  0  0  0
  1  6  1  0  0  0  0
  1  2  1  0  0  0  0
  2  3  1  0  0  0  0
  3  4  1  0  0  0  0
  4  5  1  0  0  0  0
  5  6  1  0  0  0  0
  7 12  1  0  0  0  0
  7  8  1  0  0  0  0
  8  9  1  0  0  0  0
  9 10  1  0  0  0  0
 10 11  1  0  0  0  0
 11 12  1  0  0  0  0
 13 18  1  0  0  0  0
 13 14  1  0  0  0  0
 14 15  1  0  0  0  0
 15 16  1  0  0  0  0
 16 17  1  0  0  0  0
 17 18  1  0  0  0  0
 19 20  2  0  0  0  0
 20 21  1  0  0  0  0
 20 22  1  0  0  0  0
 22 23  1  0  0  0  0
 23 24  1  0  0  0  0
 23 25  1  0  0  0  0
 23 29  1  0  0  0  0
 25 26  1  0  0  0  0
 26 27  2  0  0  0  0
 26 28  1  0  0  0  0
 29 30  2  0  0  0  0
 29 31  1  0  0  0  0
 32 33  2  0  0  0  0
 33 34  1  0  0  0  0
 33 35  1  0  0  0  0
 35 36  1  0  0  0  0
 36 37  1  0  0  0  0
 36 38  1  0  0  0  0
 36 42  1  0  0  0  0
 38 39  1  0  0  0  0
 39 40  2  0  0  0  0
 39 41  1  0  0  0  0
 42 43  2  0  0  0  0
 42 44  1  0  0  0  0
M  END
$$$$

 OpenBabel10082008492D

 26 27  0  0  1  0  0  0  0  0999 V2000
    2.5981   -4.5000    0.0000 C   0  0  0  0  0  0  0  0  0  0  0  0
    2.5981   -3.5000    0.0000 C   0  0  0  0  0  0  0  0  0  0  0  0
    1.7321   -3.0000    0.0000 C   0  0  0  0  0  0  0  0  0  0  0  0
    0.8660   -3.5000    0.0000 O   0  0  0  0  0  0  0  0  0  0  0  0
    1.7321   -2.0000    0.0000 O   0  0  0  0  0  0  0  0  0  0  0  0
    0.8660   -1.5000    0.0000 C   0  0  1  0  0  0  0  0  0  0  0  0
    1.3660   -0.6340    0.0000 C   0  0  0  0  0  0  0  0  0  0  0  0
    2.3660   -0.6340    0.0000 C   0  0  0  0  0  0  0  0  0  0  0  0
    2.8660   -1.5000    0.0000 C   0  0  0  0  0  0  0  0  0  0  0  0
    3.8660   -1.5000    0.0000 C   0  0  0  0  0  0  0  0  0  0  0  0
    4.3660   -0.6340    0.0000 C   0  0  0  0  0  0  0  0  0  0  0  0
    3.8660    0.2321    0.0000 C   0  0  0  0  0  0  0  0  0  0  0  0
    2.8660    0.2321    0.0000 C   0  0  0  0  0  0  0  0  0  0  0  0
    0.0000   -1.0000    0.0000 C   0  0  0  0  0  0  0  0  0  0  0  0
   -0.8660   -1.5000    0.0000 C   0  0  0  0  0  0  0  0  0  0  0  0
   -1.7321   -1.0000    0.0000 C   0  0  0  0  0  0  0  0  0  0  0  0
   -1.7321   -0.0000    0.0000 C   0  0  0  0  0  0  0  0  0  0  0  0
   -0.8660    0.5000    0.0000 C   0  0  0  0  0  0  0  0  0  0  0  0
    0.0000    0.0000    0.0000 C   0  0  0  0  0  0  0  0  0  0  0  0
    0.3660   -2.3660    0.0000 C   0  0  1  0  0  0  0  0  0  0  0  0
    0.3660   -3.3660    0.0000 H   0  0  0  0  0  0  0  0  0  0  0  0
    1.2321   -2.8660    0.0000 C   0  0  0  0  0  0  0  0  0  0  0  0
   -0.6340   -2.3660    0.0000 C   0  0  0  0  0  0  0  0  0  0  0  0
   -1.1340   -3.2321    0.0000 N   0  0  0  0  0  0  0  0  0  0  0  0
   -0.6340   -4.0981    0.0000 C   0  0  0  0  0  0  0  0  0  0  0  0
   -2.1340   -3.2321    0.0000 C   0  0  0  0  0  0  0  0  0  0  0  0
  1  2  1  0  0  0  0
  2  3  1  0  0  0  0
  3  4  2  0  0  0  0
  3  5  1  0  0  0  0
  6  5  1  6  0  0  0
  6  7  1  0  0  0  0
  6 14  1  0  0  0  0
  6 20  1  0  0  0  0
  7  8  1  0  0  0  0
  8 13  1  0  0  0  0
  8  9  2  0  0  0  0
  9 10  1  0  0  0  0
 10 11  2  0  0  0  0
 11 12  1  0  0  0  0
 12 13  2  0  0  0  0
 14 19  1  0  0  0  0
 14 15  2  0  0  0  0
 15 16  1  0  0  0  0
 16 17  2  0  0  0  0
 17 18  1  0  0  0  0
 18 19  2  0  0  0  0
 20 21  1  6  0  0  0
 20 22  1  0  0  0  0
 20 23  1  0  0  0  0
 23 24  1  0  0  0  0
 24 25  1  0  0  0  0
 24 26  1  0  0  0  0
M  END
$$$$

 OpenBabel10082008492D

 21 22  0  0  0  0  0  0  0  0999 V2000
   -1.5286   -1.4348    0.0000 C   0  0  0  0  0  0  0  0  0  0  0  0
   -0.7002   -1.9130    0.0000 C   0  0  0  0  0  0  0  0  0  0  0  0
   -0.7002   -2.8696    0.0000 O   0  0  0  0  0  0  0  0  0  0  0  0
    0.9565   -0.9565    0.0000 N   0  0  0  0  0  0  0  0  0  0  0  0
    1.7849   -1.4348    0.0000 C   0  0  0  0  0  0  0  0  0  0  0  0
    2.6587   -1.0457    0.0000 O   0  0  0  0  0  0  0  0  0  0  0  0
    3.2988   -1.7566    0.0000 N   0  0  0  0  0  0  0  0  0  0  0  0
    2.8205   -2.5849    0.0000 C   0  0  0  0  0  0  0  0  0  0  0  0
    3.2095   -3.4588    0.0000 C   0  0  0  0  0  0  0  0  0  0  0  0
    1.8849   -2.3861    0.0000 C   0  0  0  0  0  0  0  0  0  0  0  0
    1.1740   -3.0261    0.0000 C   0  0  0  0  0  0  0  0  0  0  0  0
    0.9565   -0.0000    0.0000 S   0  0  0  0  0  0  0  0  0  0  0  0
    1.9130   -0.0000    0.0000 O   0  0  0  0  0  0  0  0  0  0  0  0
    0.9565    0.9565    0.0000 O   0  0  0  0  0  0  0  0  0  0  0  0
    0.0000   -0.0000    0.0000 C   0  0  0  0  0  0  0  0  0  0  0  0
   -0.4783   -0.8284    0.0000 C   0  0  0  0  0  0  0  0  0  0  0  0
   -1.4348   -0.8284    0.0000 C   0  0  0  0  0  0  0  0  0  0  0  0
   -1.9130   -0.0000    0.0000 C   0  0  0  0  0  0  0  0  0  0  0  0
   -2.8696   -0.0000    0.0000 N   0  0  0  0  0  0  0  0  0  0  0  0
   -1.4348    0.8284    0.0000 C   0  0  0  0  0  0  0  0  0  0  0  0
   -0.4783    0.8284    0.0000 C   0  0  0  0  0  0  0  0  0  0  0  0
  1  2  1  0  0  0  0
  2  3  2  0  0  0  0
  2  4  1  0  0  0  0
  4  5  1  0  0  0  0
  4 12  1  0  0  0  0
  5 10  2  0  0  0  0
  5  6  1  0  0  0  0
  6  7  1  0  0  0  0
  7  8  2  0  0  0  0
  8  9  1  0  0  0  0
  8 10  1  0  0  0  0
 10 11  1  0  0  0  0
 12 13  2  0  0  0  0
 12 14  2  0  0  0  0
 12 15  1  0  0  0  0
 15 21  1  0  0  0  0
 15 16  2  0  0  0  0
 16 17  1  0  0  0  0
 17 18  2  0  0  0  0
 18 19  1  0  0  0  0
 18 20  1  0  0  0  0
 20 21  2  0  0  0  0
M  END
$$$$

 OpenBabel10082008492D

  9  8  0  0  1  0  0  0  0  0999 V2000
    2.8660    1.5000    0.0000 C   0  0  0  0  0  0  0  0  0  0  0  0
    1.8660    1.5000    0.0000 C   0  0  0  0  0  0  0  0  0  0  0  0
    0.8660    1.5000    0.0000 C   0  0  3  0  0  0  0  0  0  0  0  0
    0.8660    2.5000    0.0000 O   0  0  0  0  0  0  0  0  0  0  0  0
   -0.1340    1.5000    0.0000 C   0  0  0  0  0  0  0  0  0  0  0  0
   -0.6340    0.6340    0.0000 C   0  0  0  0  0  0  0  0  0  0  0  0
   -1.6340    0.6340    0.0000 Cl  0  0  0  0  0  0  0  0  0  0  0  0
    0.8660    0.5000    0.0000 C   0  0  0  0  0  0  0  0  0  0  0  0
   -0.0000   -0.0000    0.0000 C   0  0  0  0  0  0  0  0  0  0  0  0
  1  2  3  0  0  0  0
  2  3  1  0  0  0  0
  3  4  1  0  0  0  0
  3  5  1  0  0  0  0
  3  8  1  0  0  0  0
  5  6  2  0  0  0  0
  6  7  1  0  0  0  0
  8  9  1  0  0  0  0
M  END
$$$$

 OpenBabel10082008492D

 17 19  0  0  0  0  0  0  0  0999 V2000
   -1.5878    0.8090    0.0000 C   0  0  0  0  0  0  0  0  0  0  0  0
   -0.5878    0.8090    0.0000 C   0  0  0  0  0  0  0  0  0  0  0  0
    0.0000    1.6180    0.0000 C   0  0  0  0  0  0  0  0  0  0  0  0
    0.9511    1.3090    0.0000 C   0  0  0  0  0  0  0  0  0  0  0  0
    1.8171    1.8090    0.0000 C   0  0  0  0  0  0  0  0  0  0  0  0
    2.6831    1.3090    0.0000 C   0  0  0  0  0  0  0  0  0  0  0  0
    3.5491    1.8090    0.0000 C   0  0  0  0  0  0  0  0  0  0  0  0
    3.5491    2.8090    0.0000 C   0  0  0  0  0  0  0  0  0  0  0  0
    4.4152    1.3090    0.0000 C   0  0  0  0  0  0  0  0  0  0  0  0
    4.4152    0.3090    0.0000 C   0  0  0  0  0  0  0  0  0  0  0  0
    5.2812   -0.1910    0.0000 O   0  0  0  0  0  0  0  0  0  0  0  0
    3.5491   -0.1910    0.0000 O   0  0  0  0  0  0  0  0  0  0  0  0
    2.6831    0.3090    0.0000 C   0  0  0  0  0  0  0  0  0  0  0  0
    1.8171   -0.1910    0.0000 C   0  0  0  0  0  0  0  0  0  0  0  0
    1.8171   -1.1910    0.0000 C   0  0  0  0  0  0  0  0  0  0  0  0
    0.9511    0.3090    0.0000 C   0  0  0  0  0  0  0  0  0  0  0  0
    0.0000   -0.0000    0.0000 O   0  0  0  0  0  0  0  0  0  0  0  0
  1  2  1  0  0  0  0
  2 17  1  0  0  0  0
  2  3  2  0  0  0  0
  3  4  1  0  0  0  0
  4 16  1  0  0  0  0
  4  5  2  0  0  0  0
  5  6  1  0  0  0  0
  6 13  2  0  0  0  0
  6  7  1  0  0  0  0
  7  8  1  0  0  0  0
  7  9  2  0  0  0  0
  9 10  1  0  0  0  0
 10 11  2  0  0  0  0
 10 12  1  0  0  0  0
 12 13  1  0  0  0  0
 13 14  1  0  0  0  0
 14 15  1  0  0  0  0
 14 16  2  0  0  0  0
 16 17  1  0  0  0  0
M  END
$$$$

 OpenBabel10082008492D

 24 26  0  0  1  0  0  0  0  0999 V2000
   -2.5981   -4.5000    0.0000 C   0  0  0  0  0  0  0  0  0  0  0  0
   -2.5981   -3.5000    0.0000 C   0  0  3  0  0  0  0  0  0  0  0  0
   -3.4641   -3.0000    0.0000 C   0  0  0  0  0  0  0  0  0  0  0  0
   -3.4641   -2.0000    0.0000 C   0  0  0  0  0  0  0  0  0  0  0  0
   -2.5981   -1.5000    0.0000 C   0  0  0  0  0  0  0  0  0  0  0  0
   -2.5981   -0.5000    0.0000 C   0  0  0  0  0  0  0  0  0  0  0  0
   -3.4641    0.0000    0.0000 C   0  0  0  0  0  0  0  0  0  0  0  0
   -4.3301   -0.5000    0.0000 C   0  0  0  0  0  0  0  0  0  0  0  0
   -4.3301   -1.5000    0.0000 C   0  0  0  0  0  0  0  0  0  0  0  0
   -5.0733    0.1691    0.0000 O   0  0  0  0  0  0  0  0  0  0  0  0
   -4.6665    1.0827    0.0000 C   0  0  0  0  0  0  0  0  0  0  0  0
   -3.6720    0.9781    0.0000 O   0  0  0  0  0  0  0  0  0  0  0  0
   -1.7321   -3.0000    0.0000 N   0  0  0  0  0  0  0  0  0  0  0  0
   -1.7321   -2.0000    0.0000 C   0  0  0  0  0  0  0  0  0  0  0  0
   -0.8660   -1.5000    0.0000 C   0  0  3  0  0  0  0  0  0  0  0  0
    0.0000   -2.0000    0.0000 O   0  0  0  0  0  0  0  0  0  0  0  0
   -0.8660   -0.5000    0.0000 C   0  0  0  0  0  0  0  0  0  0  0  0
   -1.7321   -0.0000    0.0000 C   0  0  0  0  0  0  0  0  0  0  0  0
   -1.7321    1.0000    0.0000 C   0  0  0  0  0  0  0  0  0  0  0  0
   -0.8660    1.5000    0.0000 C   0  0  0  0  0  0  0  0  0  0  0  0
   -0.8660    2.5000    0.0000 O   0  0  0  0  0  0  0  0  0  0  0  0
   -0.0000    1.0000    0.0000 C   0  0  0  0  0  0  0  0  0  0  0  0
    0.8660    1.5000    0.0000 O   0  0  0  0  0  0  0  0  0  0  0  0
   -0.0000   -0.0000    0.0000 C   0  0  0  0  0  0  0  0  0  0  0  0
  1  2  1  0  0  0  0
  2  3  1  0  0  0  0
  2 13  1  0  0  0  0
  3  4  1  0  0  0  0
  4  9  1  0  0  0  0
  4  5  2  0  0  0  0
  5  6  1  0  0  0  0
  6  7  2  0  0  0  0
  7 12  1  0  0  0  0
  7  8  1  0  0  0  0
  8  9  2  0  0  0  0
  8 10  1  0  0  0  0
 10 11  1  0  0  0  0
 11 12  1  0  0  0  0
 13 14  1  0  0  0  0
 14 15  1  0  0  0  0
 15 16  1  0  0  0  0
 15 17  1  0  0  0  0
 17 24  1  0  0  0  0
 17 18  2  0  0  0  0
 18 19  1  0  0  0  0
 19 20  2  0  0  0  0
 20 21  1  0  0  0  0
 20 22  1  0  0  0  0
 22 23  1  0  0  0  0
 22 24  2  0  0  0  0
M  END
$$$$

 OpenBabel10082008492D

 16 17  0  0  1  0  0  0  0  0999 V2000
    1.7321   -0.0000    0.0000 C   0  0  0  0  0  0  0  0  0  0  0  0
    0.8660   -0.5000    0.0000 C   0  0  0  0  0  0  0  0  0  0  0  0
    0.8660   -1.5000    0.0000 C   0  0  0  0  0  0  0  0  0  0  0  0
   -0.0000   -2.0000    0.0000 C   0  0  0  0  0  0  0  0  0  0  0  0
    0.0000   -3.0000    0.0000 C   0  0  0  0  0  0  0  0  0  0  0  0
   -0.8660   -1.5000    0.0000 C   0  0  0  0  0  0  0  0  0  0  0  0
   -0.8660   -0.5000    0.0000 C   0  0  0  0  0  0  0  0  0  0  0  0
   -1.7321    0.0000    0.0000 O   0  0  0  0  0  0  0  0  0  0  0  0
   -2.5981   -0.5000    0.0000 C   0  0  0  0  0  0  0  0  0  0  0  0
   -3.4641    0.0000    0.0000 C   0  0  3  0  0  0  0  0  0  0  0  0
   -4.3776   -0.4067    0.0000 C   0  0  0  0  0  0  0  0  0  0  0  0
   -5.0468    0.3364    0.0000 N   0  0  0  0  0  0  0  0  0  0  0  0
   -4.5468    1.2024    0.0000 C   0  0  0  0  0  0  0  0  0  0  0  0
   -4.9535    2.1160    0.0000 O   0  0  0  0  0  0  0  0  0  0  0  0
   -3.5686    0.9945    0.0000 O   0  0  0  0  0  0  0  0  0  0  0  0
    0.0000    0.0000    0.0000 C   0  0  0  0  0  0  0  0  0  0  0  0
  1  2  1  0  0  0  0
  2 16  1  0  0  0  0
  2  3  2  0  0  0  0
  3  4  1  0  0  0  0
  4  5  1  0  0  0  0
  4  6  2  0  0  0  0
  6  7  1  0  0  0  0
  7  8  1  0  0  0  0
  7 16  2  0  0  0  0
  8  9  1  0  0  0  0
  9 10  1  0  0  0  0
 10 15  1  0  0  0  0
 10 11  1  0  0  0  0
 11 12  1  0  0  0  0
 12 13  1  0  0  0  0
 13 14  2  0  0  0  0
 13 15  1  0  0  0  0
M  END
$$$$

 OpenBabel10082008492D

 21 22  0  0  0  0  0  0  0  0999 V2000
   -2.4641   -1.0000    0.0000 C   0  0  0  0  0  0  0  0  0  0  0  0
   -1.5981   -1.5000    0.0000 C   0  0  0  0  0  0  0  0  0  0  0  0
   -0.7321   -1.0000    0.0000 C   0  0  0  0  0  0  0  0  0  0  0  0
    0.1340   -1.5000    0.0000 C   0  0  0  0  0  0  0  0  0  0  0  0
    1.0000   -1.0000    0.0000 O   0  0  0  0  0  0  0  0  0  0  0  0
    1.0000   -0.0000    0.0000 P   0  0  0  0  0  0  0  0  0  0  0  0
    2.0000   -0.0000    0.0000 O   0  0  0  0  0  0  0  0  0  0  0  0
    1.0000    1.0000    0.0000 O   0  0  0  0  0  0  0  0  0  0  0  0
    0.0000   -0.0000    0.0000 O   0  0  0  0  0  0  0  0  0  0  0  0
    0.1340   -2.5000    0.0000 C   0  0  0  0  0  0  0  0  0  0  0  0
    1.0000   -3.0000    0.0000 C   0  0  0  0  0  0  0  0  0  0  0  0
    1.0000   -4.0000    0.0000 C   0  0  0  0  0  0  0  0  0  0  0  0
    0.1340   -4.5000    0.0000 C   0  0  0  0  0  0  0  0  0  0  0  0
   -0.7321   -4.0000    0.0000 C   0  0  0  0  0  0  0  0  0  0  0  0
   -0.7321   -3.0000    0.0000 C   0  0  0  0  0  0  0  0  0  0  0  0
   -1.5981   -2.5000    0.0000 C   0  0  0  0  0  0  0  0  0  0  0  0
   -2.4641   -3.0000    0.0000 O   0  0  0  0  0  0  0  0  0  0  0  0
   -3.3301   -2.5000    0.0000 P   0  0  0  0  0  0  0  0  0  0  0  0
   -2.8301   -1.6340    0.0000 O   0  0  0  0  0  0  0  0  0  0  0  0
   -4.1962   -2.0000    0.0000 O   0  0  0  0  0  0  0  0  0  0  0  0
   -3.8301   -3.3660    0.0000 O   0  0  0  0  0  0  0  0  0  0  0  0
  1  2  1  0  0  0  0
  2 16  1  0  0  0  0
  2  3  2  0  0  0  0
  3  4  1  0  0  0  0
  4  5  1  0  0  0  0
  4 10  2  0  0  0  0
  5  6  1  0  0  0  0
  6  7  2  0  0  0  0
  6  8  1  0  0  0  0
  6  9  1  0  0  0  0
 10 15  1  0  0  0  0
 10 11  1  0  0  0  0
 11 12  2  0  0  0  0
 12 13  1  0  0  0  0
 13 14  2  0  0  0  0
 14 15  1  0  0  0  0
 15 16  2  0  0  0  0
 16 17  1  0  0  0  0
 17 18  1  0  0  0  0
 18 19  2  0  0  0  0
 18 20  1  0  0  0  0
 18 21  1  0  0  0  0
M  END
$$$$

 OpenBabel10082008492D

 19 20  0  0  0  0  0  0  0  0999 V2000
    4.4641   -1.0000    0.0000 C   0  0  0  0  0  0  0  0  0  0  0  0
    3.5981   -1.5000    0.0000 C   0  0  0  0  0  0  0  0  0  0  0  0
    3.5981   -2.5000    0.0000 C   0  0  0  0  0  0  0  0  0  0  0  0
    2.7321   -3.0000    0.0000 C   0  0  0  0  0  0  0  0  0  0  0  0
    2.7321   -4.0000    0.0000 C   0  0  0  0  0  0  0  0  0  0  0  0
    1.8660   -2.5000    0.0000 N   0  0  0  0  0  0  0  0  0  0  0  0
    1.8660   -1.5000    0.0000 C   0  0  0  0  0  0  0  0  0  0  0  0
    1.0000   -1.0000    0.0000 N   0  0  0  0  0  0  0  0  0  0  0  0
    1.0000   -0.0000    0.0000 S   0  0  0  0  0  0  0  0  0  0  0  0
    2.0000    0.0000    0.0000 O   0  0  0  0  0  0  0  0  0  0  0  0
    1.0000    1.0000    0.0000 O   0  0  0  0  0  0  0  0  0  0  0  0
    0.0000   -0.0000    0.0000 C   0  0  0  0  0  0  0  0  0  0  0  0
   -0.5000   -0.8660    0.0000 C   0  0  0  0  0  0  0  0  0  0  0  0
   -1.5000   -0.8660    0.0000 C   0  0  0  0  0  0  0  0  0  0  0  0
   -2.0000   -0.0000    0.0000 C   0  0  0  0  0  0  0  0  0  0  0  0
   -3.0000   -0.0000    0.0000 N   0  0  0  0  0  0  0  0  0  0  0  0
   -1.5000    0.8660    0.0000 C   0  0  0  0  0  0  0  0  0  0  0  0
   -0.5000    0.8660    0.0000 C   0  0  0  0  0  0  0  0  0  0  0  0
    2.7321   -1.0000    0.0000 N   0  0  0  0  0  0  0  0  0  0  0  0
  1  2  1  0  0  0  0
  2 19  1  0  0  0  0
  2  3  2  0  0  0  0
  3  4  1  0  0  0  0
  4  5  1  0  0  0  0
  4  6  2  0  0  0  0
  6  7  1  0  0  0  0
  7  8  1  0  0  0  0
  7 19  2  0  0  0  0
  8  9  1  0  0  0  0
  9 10  2  0  0  0  0
  9 11  2  0  0  0  0
  9 12  1  0  0  0  0
 12 18  1  0  0  0  0
 12 13  2  0  0  0  0
 13 14  1  0  0  0  0
 14 15  2  0  0  0  0
 15 16  1  0  0  0  0
 15 17  1  0  0  0  0
 17 18  2  0  0  0  0
M  END
$$$$

 OpenBabel10082008492D

 21 23  0  0  1  0  0  0  0  0999 V2000
    1.8090    1.5878    0.0000 O   0  0  0  0  0  0  0  0  0  0  0  0
    0.8090    1.5878    0.0000 C   0  0  3  0  0  0  0  0  0  0  0  0
    0.8090    2.5878    0.0000 C   0  0  0  0  0  0  0  0  0  0  0  0
    1.6750    3.0878    0.0000 C   0  0  0  0  0  0  0  0  0  0  0  0
    2.5411    2.5878    0.0000 N   0  0  0  0  0  0  0  0  0  0  0  0
    3.4071    3.0878    0.0000 C   0  0  0  0  0  0  0  0  0  0  0  0
    4.2731    2.5878    0.0000 C   0  0  0  0  0  0  0  0  0  0  0  0
    4.2731    1.5878    0.0000 C   0  0  0  0  0  0  0  0  0  0  0  0
    3.4071    1.0878    0.0000 C   0  0  0  0  0  0  0  0  0  0  0  0
    2.5411    1.5878    0.0000 C   0  0  0  0  0  0  0  0  0  0  0  0
   -0.1910    1.5878    0.0000 C   0  0  0  0  0  0  0  0  0  0  0  0
   -0.6910    0.7218    0.0000 C   0  0  0  0  0  0  0  0  0  0  0  0
   -1.6910    0.7218    0.0000 C   0  0  0  0  0  0  0  0  0  0  0  0
   -2.1910    1.5878    0.0000 C   0  0  0  0  0  0  0  0  0  0  0  0
   -1.6910    2.4538    0.0000 C   0  0  0  0  0  0  0  0  0  0  0  0
   -0.6910    2.4538    0.0000 C   0  0  0  0  0  0  0  0  0  0  0  0
    0.8090    0.5878    0.0000 C   0  0  0  0  0  0  0  0  0  0  0  0
    1.6180   -0.0000    0.0000 C   0  0  0  0  0  0  0  0  0  0  0  0
    1.3090   -0.9511    0.0000 C   0  0  0  0  0  0  0  0  0  0  0  0
    0.3090   -0.9511    0.0000 C   0  0  0  0  0  0  0  0  0  0  0  0
    0.0000   -0.0000    0.0000 C   0  0  0  0  0  0  0  0  0  0  0  0
  1  2  1  0  0  0  0
  2  3  1  0  0  0  0
  2 11  1  0  0  0  0
  2 17  1  0  0  0  0
  3  4  1  0  0  0  0
  4  5  1  0  0  0  0
  5 10  1  0  0  0  0
  5  6  1  0  0  0  0
  6  7  1  0  0  0  0
  7  8  1  0  0  0  0
  8  9  1  0  0  0  0
  9 10  1  0  0  0  0
 11 16  1  0  0  0  0
 11 12  2  0  0  0  0
 12 13  1  0  0  0  0
 13 14  2  0  0  0  0
 14 15  1  0  0  0  0
 15 16  2  0  0  0  0
 17 21  1  0  0  0  0
 17 18  1  0  0  0  0
 18 19  1  0  0  0  0
 19 20  1  0  0  0  0
 20 21  1  0  0  0  0
M  END
$$$$

 OpenBabel10082008492D

 19 21  0  0  0  0  0  0  0  0999 V2000
    2.0000   -1.7321    0.0000 C   0  0  0  0  0  0  0  0  0  0  0  0
    1.5000   -0.8660    0.0000 O   0  0  0  0  0  0  0  0  0  0  0  0
    0.5000   -0.8660    0.0000 C   0  0  0  0  0  0  0  0  0  0  0  0
    0.0000   -1.7321    0.0000 C   0  0  0  0  0  0  0  0  0  0  0  0
   -1.0000   -1.7321    0.0000 C   0  0  0  0  0  0  0  0  0  0  0  0
   -1.5000   -0.8660    0.0000 C   0  0  0  0  0  0  0  0  0  0  0  0
   -2.5000   -0.8660    0.0000 C   0  0  0  0  0  0  0  0  0  0  0  0
   -3.0878   -1.6750    0.0000 C   0  0  0  0  0  0  0  0  0  0  0  0
   -2.7788   -2.6261    0.0000 O   0  0  0  0  0  0  0  0  0  0  0  0
   -4.0388   -1.3660    0.0000 C   0  0  0  0  0  0  0  0  0  0  0  0
   -4.9049   -1.8660    0.0000 C   0  0  0  0  0  0  0  0  0  0  0  0
   -5.7709   -1.3660    0.0000 C   0  0  0  0  0  0  0  0  0  0  0  0
   -5.7709   -0.3660    0.0000 C   0  0  0  0  0  0  0  0  0  0  0  0
   -4.9049    0.1340    0.0000 C   0  0  0  0  0  0  0  0  0  0  0  0
   -4.0388   -0.3660    0.0000 C   0  0  0  0  0  0  0  0  0  0  0  0
   -3.0878   -0.0570    0.0000 C   0  0  0  0  0  0  0  0  0  0  0  0
   -2.7788    0.8940    0.0000 O   0  0  0  0  0  0  0  0  0  0  0  0
   -1.0000   -0.0000    0.0000 C   0  0  0  0  0  0  0  0  0  0  0  0
   -0.0000   -0.0000    0.0000 C   0  0  0  0  0  0  0  0  0  0  0  0
  1  2  1  0  0  0  0
  2  3  1  0  0  0  0
  3 19  1  0  0  0  0
  3  4  2  0  0  0  0
  4  5  1  0  0  0  0
  5  6  2  0  0  0  0
  6  7  1  0  0  0  0
  6 18  1  0  0  0  0
  7 16  1  0  0  0  0
  7  8  1  0  0  0  0
  8  9  2  0  0  0  0
  8 10  1  0  0  0  0
 10 15  1  0  0  0  0
 10 11  2  0  0  0  0
 11 12  1  0  0  0  0
 12 13  2  0  0  0  0
 13 14  1  0  0  0  0
 14 15  2  0  0  0  0
 15 16  1  0  0  0  0
 16 17  2  0  0  0  0
 18 19  2  0  0  0  0
M  END
$$$$

 OpenBabel10082008492D

 26 25  0  0  0  0  0  0  0  0999 V2000
   -3.5000   -0.8660    0.0000 F   0  0  0  0  0  0  0  0  0  0  0  0
   -3.0000    0.0000    0.0000 C   0  0  0  0  0  0  0  0  0  0  0  0
   -3.0000    1.0000    0.0000 F   0  0  0  0  0  0  0  0  0  0  0  0
   -3.8660    0.5000    0.0000 F   0  0  0  0  0  0  0  0  0  0  0  0
   -2.0000    0.0000    0.0000 C   0  0  0  0  0  0  0  0  0  0  0  0
   -1.1340   -0.5000    0.0000 F   0  0  0  0  0  0  0  0  0  0  0  0
   -2.0000   -1.0000    0.0000 F   0  0  0  0  0  0  0  0  0  0  0  0
   -1.5000    0.8660    0.0000 C   0  0  0  0  0  0  0  0  0  0  0  0
   -1.5000    1.8660    0.0000 F   0  0  0  0  0  0  0  0  0  0  0  0
   -2.3660    1.3660    0.0000 F   0  0  0  0  0  0  0  0  0  0  0  0
   -0.5000    0.8660    0.0000 C   0  0  0  0  0  0  0  0  0  0  0  0
    0.3660    0.3660    0.0000 F   0  0  0  0  0  0  0  0  0  0  0  0
   -0.5000   -0.1340    0.0000 F   0  0  0  0  0  0  0  0  0  0  0  0
    0.0000    1.7321    0.0000 C   0  0  0  0  0  0  0  0  0  0  0  0
    0.0000    2.7321    0.0000 F   0  0  0  0  0  0  0  0  0  0  0  0
   -0.8660    2.2321    0.0000 F   0  0  0  0  0  0  0  0  0  0  0  0
    1.0000    1.7321    0.0000 C   0  0  0  0  0  0  0  0  0  0  0  0
    1.8660    2.2321    0.0000 F   0  0  0  0  0  0  0  0  0  0  0  0
    1.0000    2.7321    0.0000 F   0  0  0  0  0  0  0  0  0  0  0  0
    1.5000    0.8660    0.0000 C   0  0  0  0  0  0  0  0  0  0  0  0
    2.3660    0.3660    0.0000 F   0  0  0  0  0  0  0  0  0  0  0  0
    2.3660    1.3660    0.0000 F   0  0  0  0  0  0  0  0  0  0  0  0
    1.0000   -0.0000    0.0000 C   0  0  0  0  0  0  0  0  0  0  0  0
    1.0000   -1.0000    0.0000 F   0  0  0  0  0  0  0  0  0  0  0  0
    1.8660   -0.5000    0.0000 F   0  0  0  0  0  0  0  0  0  0  0  0
    0.0000    0.0000    0.0000 Br  0  0  0  0  0  0  0  0  0  0  0  0
  1  2  1  0  0  0  0
  2  3  1  0  0  0  0
  2  4  1  0  0  0  0
  2  5  1  0  0  0  0
  5  6  1  0  0  0  0
  5  7  1  0  0  0  0
  5  8  1  0  0  0  0
  8  9  1  0  0  0  0
  8 10  1  0  0  0  0
  8 11  1  0  0  0  0
 11 12  1  0  0  0  0
 11 13  1  0  0  0  0
 11 14  1  0  0  0  0
 14 15  1  0  0  0  0
 14 16  1  0  0  0  0
 14 17  1  0  0  0  0
 17 18  1  0  0  0  0
 17 19  1  0  0  0  0
 17 20  1  0  0  0  0
 20 21  1  0  0  0  0
 20 22  1  0  0  0  0
 20 23  1  0  0  0  0
 23 24  1  0  0  0  0
 23 25  1  0  0  0  0
 23 26  1  0  0  0  0
M  END
$$$$

 OpenBabel10082008492D

 19 20  0  0  1  0  0  0  0  0999 V2000
    2.0981   -2.3660    0.0000 C   0  0  0  0  0  0  0  0  0  0  0  0
    2.5981   -1.5000    0.0000 C   0  0  1  0  0  0  0  0  0  0  0  0
    3.4641   -2.0000    0.0000 H   0  0  0  0  0  0  0  0  0  0  0  0
    3.0981   -0.6340    0.0000 C   0  0  0  0  0  0  0  0  0  0  0  0
    4.0981   -0.6340    0.0000 C   0  0  0  0  0  0  0  0  0  0  0  0
    4.5981   -1.5000    0.0000 C   0  0  0  0  0  0  0  0  0  0  0  0
    5.5981   -1.5000    0.0000 C   0  0  0  0  0  0  0  0  0  0  0  0
    6.0981   -0.6340    0.0000 C   0  0  0  0  0  0  0  0  0  0  0  0
    5.5981    0.2321    0.0000 C   0  0  0  0  0  0  0  0  0  0  0  0
    4.5981    0.2321    0.0000 C   0  0  0  0  0  0  0  0  0  0  0  0
    1.7321   -1.0000    0.0000 N   0  0  0  0  0  0  0  0  0  0  0  0
    1.7321   -0.0000    0.0000 C   0  0  0  0  0  0  0  0  0  0  0  0
    0.8660   -1.5000    0.0000 C   0  0  0  0  0  0  0  0  0  0  0  0
    0.0000   -1.0000    0.0000 C   0  0  0  0  0  0  0  0  0  0  0  0
   -0.8660   -1.5000    0.0000 C   0  0  0  0  0  0  0  0  0  0  0  0
   -1.7321   -1.0000    0.0000 C   0  0  0  0  0  0  0  0  0  0  0  0
   -1.7321   -0.0000    0.0000 C   0  0  0  0  0  0  0  0  0  0  0  0
   -0.8660    0.5000    0.0000 C   0  0  0  0  0  0  0  0  0  0  0  0
    0.0000    0.0000    0.0000 C   0  0  0  0  0  0  0  0  0  0  0  0
  1  2  1  0  0  0  0
  2  3  1  1  0  0  0
  2  4  1  0  0  0  0
  2 11  1  0  0  0  0
  4  5  1  0  0  0  0
  5 10  1  0  0  0  0
  5  6  2  0  0  0  0
  6  7  1  0  0  0  0
  7  8  2  0  0  0  0
  8  9  1  0  0  0  0
  9 10  2  0  0  0  0
 11 12  1  0  0  0  0
 11 13  1  0  0  0  0
 13 14  1  0  0  0  0
 14 19  1  0  0  0  0
 14 15  2  0  0  0  0
 15 16  1  0  0  0  0
 16 17  2  0  0  0  0
 17 18  1  0  0  0  0
 18 19  2  0  0  0  0
M  END
$$$$

 OpenBabel10082008492D

 30 33  0  0  0  0  0  0  0  0999 V2000
    1.7321    4.0000    0.0000 C   0  0  0  0  0  0  0  0  0  0  0  0
    0.8660    4.5000    0.0000 C   0  0  0  0  0  0  0  0  0  0  0  0
    0.0000    4.0000    0.0000 C   0  0  0  0  0  0  0  0  0  0  0  0
   -0.8660    4.5000    0.0000 O   0  0  0  0  0  0  0  0  0  0  0  0
    0.0000    3.0000    0.0000 C   0  0  0  0  0  0  0  0  0  0  0  0
    0.8660    2.5000    0.0000 C   0  0  0  0  0  0  0  0  0  0  0  0
    0.8660    1.5000    0.0000 C   0  0  0  0  0  0  0  0  0  0  0  0
    0.0000    1.0000    0.0000 C   0  0  0  0  0  0  0  0  0  0  0  0
   -0.8660    1.5000    0.0000 C   0  0  0  0  0  0  0  0  0  0  0  0
   -0.8660    2.5000    0.0000 C   0  0  0  0  0  0  0  0  0  0  0  0
   -1.7321    1.0000    0.0000 N   0  0  0  0  0  0  0  0  0  0  0  0
   -2.5981    1.5000    0.0000 C   0  0  0  0  0  0  0  0  0  0  0  0
   -3.4641    1.0000    0.0000 C   0  0  0  0  0  0  0  0  0  0  0  0
   -3.4641    0.0000    0.0000 C   0  0  0  0  0  0  0  0  0  0  0  0
   -4.3301   -0.5000    0.0000 N   0  0  0  0  0  0  0  0  0  0  0  0
   -4.3301   -1.5000    0.0000 C   0  0  0  0  0  0  0  0  0  0  0  0
   -5.1962   -2.0000    0.0000 C   0  0  0  0  0  0  0  0  0  0  0  0
   -6.0622   -1.5000    0.0000 N   0  0  0  0  0  0  0  0  0  0  0  0
   -6.9282   -2.0000    0.0000 C   0  0  0  0  0  0  0  0  0  0  0  0
   -6.9282   -3.0000    0.0000 C   0  0  0  0  0  0  0  0  0  0  0  0
   -7.7942   -3.5000    0.0000 O   0  0  0  0  0  0  0  0  0  0  0  0
   -6.0622   -0.5000    0.0000 C   0  0  0  0  0  0  0  0  0  0  0  0
   -5.1962    0.0000    0.0000 C   0  0  0  0  0  0  0  0  0  0  0  0
   -1.7321    0.0000    0.0000 C   0  0  0  0  0  0  0  0  0  0  0  0
   -2.5981   -0.5000    0.0000 C   0  0  0  0  0  0  0  0  0  0  0  0
   -2.5981   -1.5000    0.0000 C   0  0  0  0  0  0  0  0  0  0  0  0
   -1.7321   -2.0000    0.0000 C   0  0  0  0  0  0  0  0  0  0  0  0
   -0.8660   -1.5000    0.0000 C   0  0  0  0  0  0  0  0  0  0  0  0
   -0.8660   -0.5000    0.0000 C   0  0  0  0  0  0  0  0  0  0  0  0
   -0.0000   -0.0000    0.0000 S   0  0  0  0  0  0  0  0  0  0  0  0
  1  2  1  0  0  0  0
  2  3  1  0  0  0  0
  3  4  2  0  0  0  0
  3  5  1  0  0  0  0
  5 10  1  0  0  0  0
  5  6  2  0  0  0  0
  6  7  1  0  0  0  0
  7  8  2  0  0  0  0
  8 30  1  0  0  0  0
  8  9  1  0  0  0  0
  9 10  2  0  0  0  0
  9 11  1  0  0  0  0
 11 12  1  0  0  0  0
 11 24  1  0  0  0  0
 12 13  1  0  0  0  0
 13 14  1  0  0  0  0
 14 15  1  0  0  0  0
 15 23  1  0  0  0  0
 15 16  1  0  0  0  0
 16 17  1  0  0  0  0
 17 18  1  0  0  0  0
 18 19  1  0  0  0  0
 18 22  1  0  0  0  0
 19 20  1  0  0  0  0
 20 21  1  0  0  0  0
 22 23  1  0  0  0  0
 24 29  1  0  0  0  0
 24 25  2  0  0  0  0
 25 26  1  0  0  0  0
 26 27  2  0  0  0  0
 27 28  1  0  0  0  0
 28 29  2  0  0  0  0
 29 30  1  0  0  0  0
M  END
$$$$

 OpenBabel10082008492D

 12 12  0  0  0  0  0  0  0  0999 V2000
   -0.5482    1.9142    0.0000 C   0  0  0  0  0  0  0  0  0  0  0  0
    0.1589    1.2071    0.0000 C   0  0  0  0  0  0  0  0  0  0  0  0
    0.8660    0.5000    0.0000 C   0  0  0  0  0  0  0  0  0  0  0  0
    1.7899    0.8827    0.0000 O   0  0  0  0  0  0  0  0  0  0  0  0
    1.9204    1.8741    0.0000 C   0  0  0  0  0  0  0  0  0  0  0  0
    2.8443    2.2568    0.0000 N   0  0  0  0  0  0  0  0  0  0  0  0
    1.1271    2.4829    0.0000 O   0  0  0  0  0  0  0  0  0  0  0  0
    1.7321   -0.0000    0.0000 C   0  0  0  0  0  0  0  0  0  0  0  0
    1.7321   -1.0000    0.0000 C   0  0  0  0  0  0  0  0  0  0  0  0
    0.8660   -1.5000    0.0000 C   0  0  0  0  0  0  0  0  0  0  0  0
    0.0000   -1.0000    0.0000 C   0  0  0  0  0  0  0  0  0  0  0  0
    0.0000   -0.0000    0.0000 C   0  0  0  0  0  0  0  0  0  0  0  0
  1  2  3  0  0  0  0
  2  3  1  0  0  0  0
  3 12  1  0  0  0  0
  3  4  1  0  0  0  0
  3  8  1  0  0  0  0
  4  5  1  0  0  0  0
  5  6  1  0  0  0  0
  5  7  2  0  0  0  0
  8  9  1  0  0  0  0
  9 10  1  0  0  0  0
 10 11  1  0  0  0  0
 11 12  1  0  0  0  0
M  END
$$$$

 OpenBabel10082008492D

 27 31  0  0  1  0  0  0  0  0999 V2000
    2.0861    3.0207    0.0000 N   0  0  0  0  0  0  0  0  0  0  0  0
    1.2201    2.5207    0.0000 C   0  0  0  0  0  0  0  0  0  0  0  0
    0.3540    2.0207    0.0000 C   0  0  2  0  0  0  0  0  0  0  0  0
    1.2201    1.5207    0.0000 H   0  0  0  0  0  0  0  0  0  0  0  0
   -0.2337    2.8297    0.0000 C   0  0  0  0  0  0  0  0  0  0  0  0
   -1.1848    2.5207    0.0000 C   0  0  2  0  0  0  0  0  0  0  0  0
   -1.2560    3.5182    0.0000 H   0  0  0  0  0  0  0  0  0  0  0  0
   -2.0508    2.0207    0.0000 C   0  0  0  0  0  0  0  0  0  0  0  0
   -1.1848    1.5207    0.0000 C   0  0  2  0  0  0  0  0  0  0  0  0
   -1.2560    0.5232    0.0000 H   0  0  0  0  0  0  0  0  0  0  0  0
   -0.2337    1.2117    0.0000 N   0  0  0  0  0  0  0  0  0  0  0  0
    0.0753    0.2606    0.0000 C   0  0  0  0  0  0  0  0  0  0  0  0
    1.0534    0.0527    0.0000 O   0  0  0  0  0  0  0  0  0  0  0  0
   -0.5939   -0.4825    0.0000 C   0  0  1  0  0  0  0  0  0  0  0  0
   -1.5449   -0.7915    0.0000 H   0  0  0  0  0  0  0  0  0  0  0  0
   -1.3370    0.1866    0.0000 N   0  0  0  0  0  0  0  0  0  0  0  0
   -0.2848   -1.4336    0.0000 C   0  0  3  0  0  0  0  0  0  0  0  0
   -0.2325   -2.4322    0.0000 C   0  0  0  0  0  0  0  0  0  0  0  0
    0.6585   -2.8862    0.0000 C   0  0  3  0  0  0  0  0  0  0  0  0
   -0.0652   -3.1516    0.0000 C   0  0  0  0  0  0  0  0  0  0  0  0
   -0.7239   -2.7513    0.0000 C   0  0  3  0  0  0  0  0  0  0  0  0
    0.7670   -2.6732    0.0000 C   0  0  0  0  0  0  0  0  0  0  0  0
    1.4448   -1.3429    0.0000 C   0  0  3  0  0  0  0  0  0  0  0  0
    4.0829    9.4371    0.0000 O   0  0  0  0  0  0  0  0  0  0  0  0
    1.4972   -2.3416    0.0000 C   0  0  0  0  0  0  0  0  0  0  0  0
    0.5538   -0.8889    0.0000 C   0  0  0  0  0  0  0  0  0  0  0  0
   -0.8217   -1.9867    0.0000 C   0  0  0  0  0  0  0  0  0  0  0  0
  1  2  3  0  0  0  0
  2  3  1  0  0  0  0
  3  4  1  6  0  0  0
  3 11  1  0  0  0  0
  3  5  1  0  0  0  0
  5  6  1  0  0  0  0
  6  7  1  6  0  0  0
  6  9  1  0  0  0  0
  6  8  1  0  0  0  0
  8  9  1  0  0  0  0
  9 10  1  6  0  0  0
  9 11  1  0  0  0  0
 11 12  1  0  0  0  0
 12 13  2  0  0  0  0
 12 14  1  0  0  0  0
 14 15  1  1  0  0  0
 14 16  1  0  0  0  0
 14 17  1  0  0  0  0
 17 26  1  0  0  0  0
 17 27  1  0  0  0  0
 17 18  1  0  0  0  0
 18 19  1  0  0  0  0
 19 25  1  0  0  0  0
 19 20  1  0  0  0  0
 20 21  1  0  0  0  0
 21 22  1  0  0  0  0
 21 27  1  0  0  0  0
 22 23  1  0  0  0  0
 23 24  1  0  0  0  0
 23 25  1  0  0  0  0
 23 26  1  0  0  0  0
M  END
$$$$

 OpenBabel10082008492D

 12 12  0  0  0  0  0  0  0  0999 V2000
    3.4641   -0.0000    0.0000 C   0  0  0  0  0  0  0  0  0  0  0  0
    2.5981   -0.5000    0.0000 C   0  0  0  0  0  0  0  0  0  0  0  0
    2.0981   -1.3660    0.0000 C   0  0  0  0  0  0  0  0  0  0  0  0
    3.0981   -1.3660    0.0000 N   0  0  0  0  0  0  0  0  0  0  0  0
    1.7321   -0.0000    0.0000 C   0  0  0  0  0  0  0  0  0  0  0  0
    0.8660   -0.5000    0.0000 C   0  0  0  0  0  0  0  0  0  0  0  0
    0.8660   -1.5000    0.0000 C   0  0  0  0  0  0  0  0  0  0  0  0
    0.0000   -2.0000    0.0000 C   0  0  0  0  0  0  0  0  0  0  0  0
   -0.8660   -1.5000    0.0000 C   0  0  0  0  0  0  0  0  0  0  0  0
   -1.7321   -2.0000    0.0000 Cl  0  0  0  0  0  0  0  0  0  0  0  0
   -0.8660   -0.5000    0.0000 C   0  0  0  0  0  0  0  0  0  0  0  0
    0.0000   -0.0000    0.0000 C   0  0  0  0  0  0  0  0  0  0  0  0
  1  2  1  0  0  0  0
  2  3  1  0  0  0  0
  2  4  1  0  0  0  0
  2  5  1  0  0  0  0
  5  6  1  0  0  0  0
  6 12  1  0  0  0  0
  6  7  2  0  0  0  0
  7  8  1  0  0  0  0
  8  9  2  0  0  0  0
  9 10  1  0  0  0  0
  9 11  1  0  0  0  0
 11 12  2  0  0  0  0
M  END
$$$$

 OpenBabel10082008492D

 12 13  0  0  0  0  0  0  0  0999 V2000
    1.5878   -0.8090    0.0000 O   0  0  0  0  0  0  0  0  0  0  0  0
    0.5878   -0.8090    0.0000 C   0  0  0  0  0  0  0  0  0  0  0  0
   -0.0000   -1.6180    0.0000 N   0  0  0  0  0  0  0  0  0  0  0  0
    0.3090   -2.5691    0.0000 H   0  0  0  0  0  0  0  0  0  0  0  0
   -0.9511   -1.3090    0.0000 C   0  0  0  0  0  0  0  0  0  0  0  0
   -1.8171   -1.8090    0.0000 C   0  0  0  0  0  0  0  0  0  0  0  0
   -2.6831   -1.3090    0.0000 C   0  0  0  0  0  0  0  0  0  0  0  0
   -3.5491   -1.8090    0.0000 Cl  0  0  0  0  0  0  0  0  0  0  0  0
   -2.6831   -0.3090    0.0000 C   0  0  0  0  0  0  0  0  0  0  0  0
   -1.8171    0.1910    0.0000 C   0  0  0  0  0  0  0  0  0  0  0  0
   -0.9511   -0.3090    0.0000 C   0  0  0  0  0  0  0  0  0  0  0  0
   -0.0000   -0.0000    0.0000 O   0  0  0  0  0  0  0  0  0  0  0  0
  1  2  2  0  0  0  0
  2 12  1  0  0  0  0
  2  3  1  0  0  0  0
  3  4  1  0  0  0  0
  3  5  1  0  0  0  0
  5 11  1  0  0  0  0
  5  6  2  0  0  0  0
  6  7  1  0  0  0  0
  7  8  1  0  0  0  0
  7  9  2  0  0  0  0
  9 10  1  0  0  0  0
 10 11  2  0  0  0  0
 11 12  1  0  0  0  0
M  END
$$$$

 OpenBabel10082008492D

 15 17  0  0  0  0  0  0  0  0999 V2000
    0.8660   -0.5000    0.0000 C   0  0  0  0  0  0  0  0  0  0  0  0
    0.8660   -1.5000    0.0000 C   0  0  0  0  0  0  0  0  0  0  0  0
    0.0000   -2.0000    0.0000 C   0  0  0  0  0  0  0  0  0  0  0  0
   -0.8660   -1.5000    0.0000 C   0  0  0  0  0  0  0  0  0  0  0  0
   -1.8171   -1.8090    0.0000 N   0  0  0  0  0  0  0  0  0  0  0  0
   -2.1261   -2.7601    0.0000 H   0  0  0  0  0  0  0  0  0  0  0  0
   -2.4049   -1.0000    0.0000 C   0  0  0  0  0  0  0  0  0  0  0  0
   -3.4049   -1.0000    0.0000 C   0  0  0  0  0  0  0  0  0  0  0  0
   -3.9927   -1.8090    0.0000 C   0  0  0  0  0  0  0  0  0  0  0  0
   -4.9437   -1.5000    0.0000 S   0  0  0  0  0  0  0  0  0  0  0  0
   -4.9437   -0.5000    0.0000 C   0  0  0  0  0  0  0  0  0  0  0  0
   -3.9927   -0.1910    0.0000 N   0  0  0  0  0  0  0  0  0  0  0  0
   -1.8171   -0.1910    0.0000 N   0  0  0  0  0  0  0  0  0  0  0  0
   -0.8660   -0.5000    0.0000 C   0  0  0  0  0  0  0  0  0  0  0  0
   -0.0000   -0.0000    0.0000 C   0  0  0  0  0  0  0  0  0  0  0  0
  1 15  1  0  0  0  0
  1  2  2  0  0  0  0
  2  3  1  0  0  0  0
  3  4  2  0  0  0  0
  4 14  1  0  0  0  0
  4  5  1  0  0  0  0
  5  6  1  0  0  0  0
  5  7  1  0  0  0  0
  7  8  1  0  0  0  0
  7 13  2  0  0  0  0
  8 12  1  0  0  0  0
  8  9  2  0  0  0  0
  9 10  1  0  0  0  0
 10 11  1  0  0  0  0
 11 12  2  0  0  0  0
 13 14  1  0  0  0  0
 14 15  2  0  0  0  0
M  END
$$$$

 OpenBabel10082008492D

 20 21  0  0  1  0  0  0  0  0999 V2000
    1.7321    4.0000    0.0000 C   0  0  0  0  0  0  0  0  0  0  0  0
    0.8660    4.5000    0.0000 N   0  0  0  0  0  0  0  0  0  0  0  0
    0.8660    5.5000    0.0000 C   0  0  0  0  0  0  0  0  0  0  0  0
   -0.0000    4.0000    0.0000 C   0  0  0  0  0  0  0  0  0  0  0  0
   -0.0000    3.0000    0.0000 C   0  0  0  0  0  0  0  0  0  0  0  0
   -0.8660    2.5000    0.0000 O   0  0  0  0  0  0  0  0  0  0  0  0
   -0.8660    1.5000    0.0000 C   0  0  3  0  0  0  0  0  0  0  0  0
   -1.7321    1.0000    0.0000 C   0  0  0  0  0  0  0  0  0  0  0  0
   -1.7321   -0.0000    0.0000 C   0  0  0  0  0  0  0  0  0  0  0  0
   -2.5981   -0.5000    0.0000 C   0  0  0  0  0  0  0  0  0  0  0  0
   -3.4641   -0.0000    0.0000 C   0  0  0  0  0  0  0  0  0  0  0  0
   -4.3301   -0.5000    0.0000 Cl  0  0  0  0  0  0  0  0  0  0  0  0
   -3.4641    1.0000    0.0000 C   0  0  0  0  0  0  0  0  0  0  0  0
   -2.5981    1.5000    0.0000 C   0  0  0  0  0  0  0  0  0  0  0  0
   -0.0000    1.0000    0.0000 C   0  0  0  0  0  0  0  0  0  0  0  0
    0.8660    1.5000    0.0000 C   0  0  0  0  0  0  0  0  0  0  0  0
    1.7321    1.0000    0.0000 C   0  0  0  0  0  0  0  0  0  0  0  0
    1.7321    0.0000    0.0000 C   0  0  0  0  0  0  0  0  0  0  0  0
    0.8660   -0.5000    0.0000 C   0  0  0  0  0  0  0  0  0  0  0  0
   -0.0000   -0.0000    0.0000 N   0  0  0  0  0  0  0  0  0  0  0  0
  1  2  1  0  0  0  0
  2  3  1  0  0  0  0
  2  4  1  0  0  0  0
  4  5  1  0  0  0  0
  5  6  1  0  0  0  0
  6  7  1  0  0  0  0
  7  8  1  0  0  0  0
  7 15  1  0  0  0  0
  8 14  1  0  0  0  0
  8  9  2  0  0  0  0
  9 10  1  0  0  0  0
 10 11  2  0  0  0  0
 11 12  1  0  0  0  0
 11 13  1  0  0  0  0
 13 14  2  0  0  0  0
 15 20  1  0  0  0  0
 15 16  2  0  0  0  0
 16 17  1  0  0  0  0
 17 18  2  0  0  0  0
 18 19  1  0  0  0  0
 19 20  2  0  0  0  0
M  END
$$$$

 OpenBabel10082008492D

 32 35  0  0  0  0  0  0  0  0999 V2000
   -1.4583    2.7864    0.0000 N   0  0  0  0  0  0  0  0  0  0  0  0
   -1.4583    1.8142    0.0000 C   0  0  0  0  0  0  0  0  0  0  0  0
   -1.4583    0.8420    0.0000 C   0  0  0  0  0  0  0  0  0  0  0  0
   -2.4306    0.8420    0.0000 C   0  0  0  0  0  0  0  0  0  0  0  0
   -2.9167    1.6839    0.0000 C   0  0  0  0  0  0  0  0  0  0  0  0
   -3.8889    1.6839    0.0000 N   0  0  0  0  0  0  0  0  0  0  0  0
   -4.3750    0.8420    0.0000 C   0  0  0  0  0  0  0  0  0  0  0  0
   -5.3472    0.8420    0.0000 C   0  0  0  0  0  0  0  0  0  0  0  0
   -5.8333    1.6839    0.0000 C   0  0  0  0  0  0  0  0  0  0  0  0
   -7.5173    2.6562    0.0000 C   0  0  0  0  0  0  0  0  0  0  0  0
   -7.5173    3.6284    0.0000 O   0  0  0  0  0  0  0  0  0  0  0  0
   -8.3592    2.1700    0.0000 O   0  0  0  0  0  0  0  0  0  0  0  0
   -6.6753    1.1978    0.0000 C   0  0  0  0  0  0  0  0  0  0  0  0
   -6.6753    0.2256    0.0000 C   0  0  0  0  0  0  0  0  0  0  0  0
   -7.5173   -0.2605    0.0000 C   0  0  0  0  0  0  0  0  0  0  0  0
   -8.3592    0.2256    0.0000 C   0  0  0  0  0  0  0  0  0  0  0  0
   -8.3592    1.1978    0.0000 C   0  0  0  0  0  0  0  0  0  0  0  0
   -7.5173    1.6839    0.0000 C   0  0  0  0  0  0  0  0  0  0  0  0
   -5.3472    2.5259    0.0000 C   0  0  0  0  0  0  0  0  0  0  0  0
   -4.3750    2.5259    0.0000 C   0  0  0  0  0  0  0  0  0  0  0  0
   -1.4583   -0.1303    0.0000 C   0  0  0  0  0  0  0  0  0  0  0  0
   -0.6164   -0.6164    0.0000 C   0  0  0  0  0  0  0  0  0  0  0  0
   -0.6164   -1.5886    0.0000 C   0  0  0  0  0  0  0  0  0  0  0  0
   -1.4583   -2.0747    0.0000 C   0  0  0  0  0  0  0  0  0  0  0  0
   -2.3003   -1.5886    0.0000 C   0  0  0  0  0  0  0  0  0  0  0  0
   -2.3003   -0.6164    0.0000 C   0  0  0  0  0  0  0  0  0  0  0  0
   -0.4861    0.8420    0.0000 C   0  0  0  0  0  0  0  0  0  0  0  0
   -0.0000    1.6839    0.0000 C   0  0  0  0  0  0  0  0  0  0  0  0
    0.9722    1.6839    0.0000 C   0  0  0  0  0  0  0  0  0  0  0  0
    1.4583    0.8420    0.0000 C   0  0  0  0  0  0  0  0  0  0  0  0
    0.9722    0.0000    0.0000 C   0  0  0  0  0  0  0  0  0  0  0  0
    0.0000   -0.0000    0.0000 C   0  0  0  0  0  0  0  0  0  0  0  0
  1  2  3  0  0  0  0
  2  3  1  0  0  0  0
  3  4  1  0  0  0  0
  3 21  1  0  0  0  0
  3 27  1  0  0  0  0
  4  5  1  0  0  0  0
  5  6  1  0  0  0  0
  6 20  1  0  0  0  0
  6  7  1  0  0  0  0
  7  8  1  0  0  0  0
  8  9  1  0  0  0  0
  9 10  1  0  0  0  0
  9 13  1  0  0  0  0
  9 19  1  0  0  0  0
 10 11  2  0  0  0  0
 10 12  1  0  0  0  0
 13 18  1  0  0  0  0
 13 14  2  0  0  0  0
 14 15  1  0  0  0  0
 15 16  2  0  0  0  0
 16 17  1  0  0  0  0
 17 18  2  0  0  0  0
 19 20  1  0  0  0  0
 21 26  1  0  0  0  0
 21 22  2  0  0  0  0
 22 23  1  0  0  0  0
 23 24  2  0  0  0  0
 24 25  1  0  0  0  0
 25 26  2  0  0  0  0
 27 32  1  0  0  0  0
 27 28  2  0  0  0  0
 28 29  1  0  0  0  0
 29 30  2  0  0  0  0
 30 31  1  0  0  0  0
 31 32  2  0  0  0  0
M  END
$$$$

 OpenBabel10082008492D

 16 16  0  0  1  0  0  0  0  0999 V2000
   -4.3301   -4.5000    0.0000 N   0  0  0  0  0  0  0  0  0  0  0  0
   -3.4641   -5.0000    0.0000 C   0  0  0  0  0  0  0  0  0  0  0  0
   -3.4641   -6.0000    0.0000 O   0  0  0  0  0  0  0  0  0  0  0  0
   -2.5981   -4.5000    0.0000 O   0  0  0  0  0  0  0  0  0  0  0  0
   -2.5981   -3.5000    0.0000 C   0  0  0  0  0  0  0  0  0  0  0  0
   -1.7321   -3.0000    0.0000 C   0  0  3  0  0  0  0  0  0  0  0  0
   -0.8660   -3.5000    0.0000 O   0  0  0  0  0  0  0  0  0  0  0  0
   -1.7321   -2.0000    0.0000 C   0  0  0  0  0  0  0  0  0  0  0  0
   -0.8660   -1.5000    0.0000 O   0  0  0  0  0  0  0  0  0  0  0  0
   -0.8660   -0.5000    0.0000 C   0  0  0  0  0  0  0  0  0  0  0  0
   -1.7321    0.0000    0.0000 C   0  0  0  0  0  0  0  0  0  0  0  0
   -1.7321    1.0000    0.0000 C   0  0  0  0  0  0  0  0  0  0  0  0
   -0.8660    1.5000    0.0000 C   0  0  0  0  0  0  0  0  0  0  0  0
   -0.8660    2.5000    0.0000 Cl  0  0  0  0  0  0  0  0  0  0  0  0
   -0.0000    1.0000    0.0000 C   0  0  0  0  0  0  0  0  0  0  0  0
    0.0000   -0.0000    0.0000 C   0  0  0  0  0  0  0  0  0  0  0  0
  1  2  1  0  0  0  0
  2  3  2  0  0  0  0
  2  4  1  0  0  0  0
  4  5  1  0  0  0  0
  5  6  1  0  0  0  0
  6  7  1  0  0  0  0
  6  8  1  0  0  0  0
  8  9  1  0  0  0  0
  9 10  1  0  0  0  0
 10 16  1  0  0  0  0
 10 11  2  0  0  0  0
 11 12  1  0  0  0  0
 12 13  2  0  0  0  0
 13 14  1  0  0  0  0
 13 15  1  0  0  0  0
 15 16  2  0  0  0  0
M  END
$$$$

 OpenBabel10082008492D

 17 18  0  0  0  0  0  0  0  0999 V2000
   -4.0000   -1.0000    0.0000 N   0  0  0  0  0  0  0  0  0  0  0  0
   -3.0000   -1.0000    0.0000 C   0  0  0  0  0  0  0  0  0  0  0  0
   -2.5000   -0.1340    0.0000 C   0  0  0  0  0  0  0  0  0  0  0  0
   -1.5000   -0.1340    0.0000 C   0  0  0  0  0  0  0  0  0  0  0  0
   -1.0000   -1.0000    0.0000 C   0  0  0  0  0  0  0  0  0  0  0  0
   -0.0000   -1.0000    0.0000 S   0  0  0  0  0  0  0  0  0  0  0  0
   -0.0000   -2.0000    0.0000 O   0  0  0  0  0  0  0  0  0  0  0  0
    1.0000   -1.0000    0.0000 O   0  0  0  0  0  0  0  0  0  0  0  0
    0.0000    0.0000    0.0000 N   0  0  0  0  0  0  0  0  0  0  0  0
    0.8660    0.5000    0.0000 C   0  0  0  0  0  0  0  0  0  0  0  0
    0.8660    1.5000    0.0000 C   0  0  0  0  0  0  0  0  0  0  0  0
    1.7321    2.0000    0.0000 C   0  0  0  0  0  0  0  0  0  0  0  0
    2.5981    1.5000    0.0000 C   0  0  0  0  0  0  0  0  0  0  0  0
    2.5981    0.5000    0.0000 C   0  0  0  0  0  0  0  0  0  0  0  0
    1.7321    0.0000    0.0000 N   0  0  0  0  0  0  0  0  0  0  0  0
   -1.5000   -1.8660    0.0000 C   0  0  0  0  0  0  0  0  0  0  0  0
   -2.5000   -1.8660    0.0000 C   0  0  0  0  0  0  0  0  0  0  0  0
  1  2  1  0  0  0  0
  2 17  1  0  0  0  0
  2  3  2  0  0  0  0
  3  4  1  0  0  0  0
  4  5  2  0  0  0  0
  5  6  1  0  0  0  0
  5 16  1  0  0  0  0
  6  7  2  0  0  0  0
  6  8  2  0  0  0  0
  6  9  1  0  0  0  0
  9 10  1  0  0  0  0
 10 15  1  0  0  0  0
 10 11  2  0  0  0  0
 11 12  1  0  0  0  0
 12 13  2  0  0  0  0
 13 14  1  0  0  0  0
 14 15  2  0  0  0  0
 16 17  2  0  0  0  0
M  END
$$$$

 OpenBabel10082008492D

 23 25  0  0  0  0  0  0  0  0999 V2000
    1.5275    0.5925    0.0000 C   0  0  0  0  0  0  0  0  0  0  0  0
    1.9951    1.4022    0.0000 C   0  0  0  0  0  0  0  0  0  0  0  0
    2.9302    1.4020    0.0000 C   0  0  0  0  0  0  0  0  0  0  0  0
    1.5278    2.2120    0.0000 N   0  0  0  0  0  0  0  0  0  0  0  0
    0.5928    2.2122    0.0000 C   0  0  0  0  0  0  0  0  0  0  0  0
    0.1251    1.4026    0.0000 C   0  0  0  0  0  0  0  0  0  0  0  0
   -0.8099    1.4027    0.0000 C   0  0  0  0  0  0  0  0  0  0  0  0
   -0.8101    0.4677    0.0000 C   0  0  0  0  0  0  0  0  0  0  0  0
   -2.4296    1.4027    0.0000 C   0  0  0  0  0  0  0  0  0  0  0  0
   -2.2436    2.3191    0.0000 N   0  0  0  0  0  0  0  0  0  0  0  0
   -3.3162    1.1057    0.0000 O   0  0  0  0  0  0  0  0  0  0  0  0
   -1.6199    0.0003    0.0000 C   0  0  0  0  0  0  0  0  0  0  0  0
   -2.4301    0.4680    0.0000 C   0  0  0  0  0  0  0  0  0  0  0  0
   -3.2399    0.0006    0.0000 C   0  0  0  0  0  0  0  0  0  0  0  0
   -3.2401   -0.9350    0.0000 C   0  0  0  0  0  0  0  0  0  0  0  0
   -2.4304   -1.4027    0.0000 C   0  0  0  0  0  0  0  0  0  0  0  0
   -1.6201   -0.9353    0.0000 C   0  0  0  0  0  0  0  0  0  0  0  0
   -0.0002   -0.9356    0.0000 C   0  0  0  0  0  0  0  0  0  0  0  0
    0.8099   -1.4033    0.0000 C   0  0  0  0  0  0  0  0  0  0  0  0
    1.6198   -0.9359    0.0000 C   0  0  0  0  0  0  0  0  0  0  0  0
    1.6199   -0.0003    0.0000 C   0  0  0  0  0  0  0  0  0  0  0  0
    0.8103    0.4674    0.0000 C   0  0  0  0  0  0  0  0  0  0  0  0
    0.0000   -0.0000    0.0000 C   0  0  0  0  0  0  0  0  0  0  0  0
  1  2  1  0  0  0  0
  2  3  1  0  0  0  0
  2  4  1  0  0  0  0
  4  5  1  0  0  0  0
  5  6  1  0  0  0  0
  6  7  1  0  0  0  0
  7  8  1  0  0  0  0
  8 23  1  0  0  0  0
  8  9  1  0  0  0  0
  8 12  1  0  0  0  0
  9 10  1  0  0  0  0
  9 11  2  0  0  0  0
 12 17  1  0  0  0  0
 12 13  2  0  0  0  0
 13 14  1  0  0  0  0
 14 15  2  0  0  0  0
 15 16  1  0  0  0  0
 16 17  2  0  0  0  0
 17 18  1  0  0  0  0
 18 23  1  0  0  0  0
 18 19  2  0  0  0  0
 19 20  1  0  0  0  0
 20 21  2  0  0  0  0
 21 22  1  0  0  0  0
 22 23  2  0  0  0  0
M  END
$$$$

 OpenBabel10082008492D

 13 14  0  0  1  0  0  0  0  0999 V2000
    1.7321   -0.0000    0.0000 C   0  0  0  0  0  0  0  0  0  0  0  0
    1.7321   -1.0000    0.0000 C   0  0  3  0  0  0  0  0  0  0  0  0
    2.5981   -1.5000    0.0000 N   0  0  0  0  0  0  0  0  0  0  0  0
    2.5981   -2.5000    0.0000 C   0  0  0  0  0  0  0  0  0  0  0  0
    1.7321   -3.0000    0.0000 C   0  0  0  0  0  0  0  0  0  0  0  0
    0.8660   -2.5000    0.0000 O   0  0  0  0  0  0  0  0  0  0  0  0
    0.8660   -1.5000    0.0000 C   0  0  3  0  0  0  0  0  0  0  0  0
    0.0000   -1.0000    0.0000 C   0  0  0  0  0  0  0  0  0  0  0  0
   -0.8660   -1.5000    0.0000 C   0  0  0  0  0  0  0  0  0  0  0  0
   -1.7321   -1.0000    0.0000 C   0  0  0  0  0  0  0  0  0  0  0  0
   -1.7321   -0.0000    0.0000 C   0  0  0  0  0  0  0  0  0  0  0  0
   -0.8660    0.5000    0.0000 C   0  0  0  0  0  0  0  0  0  0  0  0
    0.0000   -0.0000    0.0000 C   0  0  0  0  0  0  0  0  0  0  0  0
  1  2  1  0  0  0  0
  2  7  1  0  0  0  0
  2  3  1  0  0  0  0
  3  4  1  0  0  0  0
  4  5  1  0  0  0  0
  5  6  1  0  0  0  0
  6  7  1  0  0  0  0
  7  8  1  0  0  0  0
  8 13  1  0  0  0  0
  8  9  2  0  0  0  0
  9 10  1  0  0  0  0
 10 11  2  0  0  0  0
 11 12  1  0  0  0  0
 12 13  2  0  0  0  0
M  END
$$$$

 OpenBabel10082008492D

 28 29  0  0  0  0  0  0  0  0999 V2000
    0.8660   -2.5000    0.0000 C   0  0  0  0  0  0  0  0  0  0  0  0
    0.8660   -1.5000    0.0000 O   0  0  0  0  0  0  0  0  0  0  0  0
   -0.0000   -1.0000    0.0000 C   0  0  0  0  0  0  0  0  0  0  0  0
   -0.8660   -1.5000    0.0000 C   0  0  0  0  0  0  0  0  0  0  0  0
   -1.7321   -1.0000    0.0000 C   0  0  0  0  0  0  0  0  0  0  0  0
   -2.5981   -1.5000    0.0000 C   0  0  0  0  0  0  0  0  0  0  0  0
   -3.4641   -1.0000    0.0000 O   0  0  0  0  0  0  0  0  0  0  0  0
   -2.5981   -2.5000    0.0000 N   0  0  0  0  0  0  0  0  0  0  0  0
   -3.4641   -3.0000    0.0000 C   0  0  0  0  0  0  0  0  0  0  0  0
   -4.3301   -2.5000    0.0000 C   0  0  0  0  0  0  0  0  0  0  0  0
   -5.1962   -3.0000    0.0000 C   0  0  0  0  0  0  0  0  0  0  0  0
   -6.0622   -2.5000    0.0000 C   0  0  0  0  0  0  0  0  0  0  0  0
   -6.0622   -1.5000    0.0000 C   0  0  0  0  0  0  0  0  0  0  0  0
   -6.9282   -1.0000    0.0000 O   0  0  0  0  0  0  0  0  0  0  0  0
   -7.7942   -1.5000    0.0000 C   0  0  0  0  0  0  0  0  0  0  0  0
   -8.6603   -1.0000    0.0000 C   0  0  0  0  0  0  0  0  0  0  0  0
   -9.5263   -1.5000    0.0000 N   0  0  0  0  0  0  0  0  0  0  0  0
  -10.3923   -1.0000    0.0000 C   0  0  0  0  0  0  0  0  0  0  0  0
   -9.5263   -2.5000    0.0000 C   0  0  0  0  0  0  0  0  0  0  0  0
   -5.1962   -1.0000    0.0000 C   0  0  0  0  0  0  0  0  0  0  0  0
   -4.3301   -1.5000    0.0000 C   0  0  0  0  0  0  0  0  0  0  0  0
   -1.7321    0.0000    0.0000 C   0  0  0  0  0  0  0  0  0  0  0  0
   -0.8660    0.5000    0.0000 C   0  0  0  0  0  0  0  0  0  0  0  0
   -0.8660    1.5000    0.0000 O   0  0  0  0  0  0  0  0  0  0  0  0
   -1.7321    2.0000    0.0000 C   0  0  0  0  0  0  0  0  0  0  0  0
    0.0000    0.0000    0.0000 C   0  0  0  0  0  0  0  0  0  0  0  0
    0.8660    0.5000    0.0000 O   0  0  0  0  0  0  0  0  0  0  0  0
    0.8660    1.5000    0.0000 C   0  0  0  0  0  0  0  0  0  0  0  0
  1  2  1  0  0  0  0
  2  3  1  0  0  0  0
  3 26  1  0  0  0  0
  3  4  2  0  0  0  0
  4  5  1  0  0  0  0
  5  6  1  0  0  0  0
  5 22  2  0  0  0  0
  6  7  2  0  0  0  0
  6  8  1  0  0  0  0
  8  9  1  0  0  0  0
  9 10  1  0  0  0  0
 10 21  1  0  0  0  0
 10 11  2  0  0  0  0
 11 12  1  0  0  0  0
 12 13  2  0  0  0  0
 13 14  1  0  0  0  0
 13 20  1  0  0  0  0
 14 15  1  0  0  0  0
 15 16  1  0  0  0  0
 16 17  1  0  0  0  0
 17 18  1  0  0  0  0
 17 19  1  0  0  0  0
 20 21  2  0  0  0  0
 22 23  1  0  0  0  0
 23 24  1  0  0  0  0
 23 26  2  0  0  0  0
 24 25  1  0  0  0  0
 26 27  1  0  0  0  0
 27 28  1  0  0  0  0
M  END
$$$$

 OpenBabel10082008492D

 19 20  0  0  1  0  0  0  0  0999 V2000
    1.5731    2.2071    0.0000 C   0  0  0  0  0  0  0  0  0  0  0  0
    0.7071    2.7071    0.0000 N   0  0  0  0  0  0  0  0  0  0  0  0
    0.7071    3.7071    0.0000 C   0  0  0  0  0  0  0  0  0  0  0  0
   -0.1589    2.2071    0.0000 C   0  0  0  0  0  0  0  0  0  0  0  0
   -0.1589    1.2071    0.0000 C   0  0  3  0  0  0  0  0  0  0  0  0
   -1.0249    0.7071    0.0000 C   0  0  0  0  0  0  0  0  0  0  0  0
   -1.0249   -0.2929    0.0000 C   0  0  0  0  0  0  0  0  0  0  0  0
   -1.8910   -0.7929    0.0000 C   0  0  0  0  0  0  0  0  0  0  0  0
   -2.7570   -0.2929    0.0000 C   0  0  0  0  0  0  0  0  0  0  0  0
   -3.6230   -0.7929    0.0000 O   0  0  0  0  0  0  0  0  0  0  0  0
   -2.7570    0.7071    0.0000 C   0  0  0  0  0  0  0  0  0  0  0  0
   -1.8910    1.2071    0.0000 C   0  0  0  0  0  0  0  0  0  0  0  0
    0.7071    0.7071    0.0000 C   0  0  0  0  0  0  0  0  0  0  0  0
    1.5005    1.3159    0.0000 O   0  0  0  0  0  0  0  0  0  0  0  0
    1.6730    0.4483    0.0000 C   0  0  0  0  0  0  0  0  0  0  0  0
    1.9319   -0.5176    0.0000 C   0  0  0  0  0  0  0  0  0  0  0  0
    1.2247   -1.2247    0.0000 C   0  0  0  0  0  0  0  0  0  0  0  0
    0.2588   -0.9659    0.0000 C   0  0  0  0  0  0  0  0  0  0  0  0
   -0.0000   -0.0000    0.0000 C   0  0  0  0  0  0  0  0  0  0  0  0
  1  2  1  0  0  0  0
  2  3  1  0  0  0  0
  2  4  1  0  0  0  0
  4  5  1  0  0  0  0
  5  6  1  0  0  0  0
  5 13  1  0  0  0  0
  6 12  1  0  0  0  0
  6  7  2  0  0  0  0
  7  8  1  0  0  0  0
  8  9  2  0  0  0  0
  9 10  1  0  0  0  0
  9 11  1  0  0  0  0
 11 12  2  0  0  0  0
 13 19  1  0  0  0  0
 13 14  1  0  0  0  0
 13 15  1  0  0  0  0
 15 16  1  0  0  0  0
 16 17  1  0  0  0  0
 17 18  1  0  0  0  0
 18 19  1  0  0  0  0
M  END
$$$$

 OpenBabel10082008492D

 26 29  0  0  1  0  0  0  0  0999 V2000
   -3.4641   -0.0000    0.0000 C   0  0  0  0  0  0  0  0  0  0  0  0
   -3.4641    1.0000    0.0000 N   0  0  0  0  0  0  0  0  0  0  0  0
   -4.3301    1.5000    0.0000 C   0  0  0  0  0  0  0  0  0  0  0  0
   -4.3301    2.5000    0.0000 C   0  0  0  0  0  0  0  0  0  0  0  0
   -3.4641    3.0000    0.0000 C   0  0  0  0  0  0  0  0  0  0  0  0
   -2.5981    2.5000    0.0000 C   0  0  0  0  0  0  0  0  0  0  0  0
   -2.5981    1.5000    0.0000 C   0  0  3  0  0  0  0  0  0  0  0  0
   -1.7321    1.0000    0.0000 C   0  0  0  0  0  0  0  0  0  0  0  0
   -0.8660    1.5000    0.0000 C   0  0  0  0  0  0  0  0  0  0  0  0
   -0.0000    1.0000    0.0000 N   0  0  0  0  0  0  0  0  0  0  0  0
    0.8660    1.5000    0.0000 C   0  0  0  0  0  0  0  0  0  0  0  0
    0.8660    2.5000    0.0000 C   0  0  0  0  0  0  0  0  0  0  0  0
    1.7321    3.0000    0.0000 C   0  0  0  0  0  0  0  0  0  0  0  0
    2.5981    2.5000    0.0000 C   0  0  0  0  0  0  0  0  0  0  0  0
    2.5981    1.5000    0.0000 C   0  0  0  0  0  0  0  0  0  0  0  0
    1.7321    1.0000    0.0000 C   0  0  0  0  0  0  0  0  0  0  0  0
    1.7321    0.0000    0.0000 S   0  0  0  0  0  0  0  0  0  0  0  0
    0.8660   -0.5000    0.0000 C   0  0  0  0  0  0  0  0  0  0  0  0
    0.8660   -1.5000    0.0000 C   0  0  0  0  0  0  0  0  0  0  0  0
    0.0000   -2.0000    0.0000 C   0  0  0  0  0  0  0  0  0  0  0  0
   -0.8660   -1.5000    0.0000 C   0  0  0  0  0  0  0  0  0  0  0  0
   -1.7321   -2.0000    0.0000 S   0  3  3  0  0  0  0  0  0  0  0  0
   -2.5981   -1.5000    0.0000 C   0  0  0  0  0  0  0  0  0  0  0  0
   -1.7321   -3.0000    0.0000 O   0  5  0  0  0  0  0  0  0  0  0  0
   -0.8660   -0.5000    0.0000 C   0  0  0  0  0  0  0  0  0  0  0  0
    0.0000    0.0000    0.0000 C   0  0  0  0  0  0  0  0  0  0  0  0
  1  2  1  0  0  0  0
  2  7  1  0  0  0  0
  2  3  1  0  0  0  0
  3  4  1  0  0  0  0
  4  5  1  0  0  0  0
  5  6  1  0  0  0  0
  6  7  1  0  0  0  0
  7  8  1  0  0  0  0
  8  9  1  0  0  0  0
  9 10  1  0  0  0  0
 10 26  1  0  0  0  0
 10 11  1  0  0  0  0
 11 16  1  0  0  0  0
 11 12  2  0  0  0  0
 12 13  1  0  0  0  0
 13 14  2  0  0  0  0
 14 15  1  0  0  0  0
 15 16  2  0  0  0  0
 16 17  1  0  0  0  0
 17 18  1  0  0  0  0
 18 26  1  0  0  0  0
 18 19  2  0  0  0  0
 19 20  1  0  0  0  0
 20 21  2  0  0  0  0
 21 22  1  0  0  0  0
 21 25  1  0  0  0  0
 22 23  1  0  0  0  0
 22 24  1  0  0  0  0
 25 26  2  0  0  0  0
M  CHG  2  22   1  24  -1
M  END
$$$$

 OpenBabel10082008492D

 13 13  0  0  1  0  0  0  0  0999 V2000
    3.4641    1.0000    0.0000 C   0  0  0  0  0  0  0  0  0  0  0  0
    2.5981    1.5000    0.0000 N   0  0  0  0  0  0  0  0  0  0  0  0
    1.7321    1.0000    0.0000 C   0  0  0  0  0  0  0  0  0  0  0  0
    1.7321    0.0000    0.0000 C   0  0  2  0  0  0  0  0  0  0  0  0
    2.2321   -0.8660    0.0000 H   0  0  0  0  0  0  0  0  0  0  0  0
    2.7321    0.0000    0.0000 O   0  0  0  0  0  0  0  0  0  0  0  0
    0.8660   -0.5000    0.0000 C   0  0  0  0  0  0  0  0  0  0  0  0
    0.8660   -1.5000    0.0000 C   0  0  0  0  0  0  0  0  0  0  0  0
    0.0000   -2.0000    0.0000 C   0  0  0  0  0  0  0  0  0  0  0  0
   -0.8660   -1.5000    0.0000 C   0  0  0  0  0  0  0  0  0  0  0  0
   -0.8660   -0.5000    0.0000 C   0  0  0  0  0  0  0  0  0  0  0  0
   -1.7321   -0.0000    0.0000 O   0  0  0  0  0  0  0  0  0  0  0  0
   -0.0000   -0.0000    0.0000 C   0  0  0  0  0  0  0  0  0  0  0  0
  1  2  1  0  0  0  0
  2  3  1  0  0  0  0
  3  4  1  0  0  0  0
  4  5  1  1  0  0  0
  4  6  1  0  0  0  0
  4  7  1  0  0  0  0
  7 13  1  0  0  0  0
  7  8  2  0  0  0  0
  8  9  1  0  0  0  0
  9 10  2  0  0  0  0
 10 11  1  0  0  0  0
 11 12  1  0  0  0  0
 11 13  2  0  0  0  0
M  END
$$$$

 OpenBabel10082008492D

 41 47  0  0  1  0  0  0  0  0999 V2000
   -0.3029   -2.6013    0.0000 O   0  0  0  0  0  0  0  0  0  0  0  0
    0.6971   -2.6013    0.0000 C   0  0  0  0  0  0  0  0  0  0  0  0
    1.2849   -3.4103    0.0000 C   0  0  1  0  0  0  0  0  0  0  0  0
    0.3338   -3.7194    0.0000 H   0  0  0  0  0  0  0  0  0  0  0  0
    1.2849   -4.4103    0.0000 C   0  0  2  0  0  0  0  0  0  0  0  0
    0.6823   -5.2084    0.0000 H   0  0  0  0  0  0  0  0  0  0  0  0
    1.4531   -3.6190    0.0000 C   0  0  0  0  0  0  0  0  0  0  0  0
    2.2225   -3.3690    0.0000 C   0  0  0  0  0  0  0  0  0  0  0  0
    2.8237   -3.9103    0.0000 C   0  0  1  0  0  0  0  0  0  0  0  0
    3.7803   -4.2018    0.0000 H   0  0  0  0  0  0  0  0  0  0  0  0
    2.2360   -4.7194    0.0000 C   0  0  0  0  0  0  0  0  0  0  0  0
    2.2360   -3.1013    0.0000 C   0  0  1  0  0  0  0  0  0  0  0  0
    3.1870   -2.7923    0.0000 H   0  0  0  0  0  0  0  0  0  0  0  0
    2.2360   -2.1013    0.0000 C   0  0  0  0  0  0  0  0  0  0  0  0
    3.0450   -1.5135    0.0000 O   0  0  0  0  0  0  0  0  0  0  0  0
    1.2849   -1.7923    0.0000 N   0  0  0  0  0  0  0  0  0  0  0  0
    1.8425    0.0000    0.0000 C   0  0  0  0  0  0  0  0  0  0  0  0
    0.9212   -0.2468    0.0000 C   0  0  2  0  0  0  0  0  0  0  0  0
    1.4149    1.5957    0.0000 H   0  0  0  0  0  0  0  0  0  0  0  0
    1.1681   -1.1681    0.0000 C   0  0  0  0  0  0  0  0  0  0  0  0
    0.4937   -1.8425    0.0000 C   0  0  0  0  0  0  0  0  0  0  0  0
   -0.4276   -1.5957    0.0000 C   0  0  0  0  0  0  0  0  0  0  0  0
   -0.6744   -0.6744    0.0000 C   0  0  0  0  0  0  0  0  0  0  0  0
   -0.0000   -0.0000    0.0000 C   0  0  1  0  0  0  0  0  0  0  0  0
    0.7567    0.5806    0.0000 H   0  0  0  0  0  0  0  0  0  0  0  0
   -0.8260    0.4769    0.0000 C   0  0  0  0  0  0  0  0  0  0  0  0
   -1.6519    0.0000    0.0000 N   0  0  0  0  0  0  0  0  0  0  0  0
   -1.6519   -0.9537    0.0000 C   0  0  0  0  0  0  0  0  0  0  0  0
   -2.4779   -1.4306    0.0000 C   0  0  0  0  0  0  0  0  0  0  0  0
   -3.3039   -0.9537    0.0000 N   0  0  0  0  0  0  0  0  0  0  0  0
   -4.1298   -1.4306    0.0000 C   0  0  0  0  0  0  0  0  0  0  0  0
   -4.2295   -2.3791    0.0000 N   0  0  0  0  0  0  0  0  0  0  0  0
   -5.1624   -2.5774    0.0000 S   0  0  0  0  0  0  0  0  0  0  0  0
   -5.6393   -1.7515    0.0000 C   0  0  0  0  0  0  0  0  0  0  0  0
   -6.5722   -1.5532    0.0000 C   0  0  0  0  0  0  0  0  0  0  0  0
   -6.8669   -0.6461    0.0000 C   0  0  0  0  0  0  0  0  0  0  0  0
   -6.2288    0.0627    0.0000 C   0  0  0  0  0  0  0  0  0  0  0  0
   -5.2959   -0.1356    0.0000 C   0  0  0  0  0  0  0  0  0  0  0  0
   -5.0011   -1.0427    0.0000 C   0  0  0  0  0  0  0  0  0  0  0  0
   -3.3039    0.0000    0.0000 C   0  0  0  0  0  0  0  0  0  0  0  0
   -2.4779    0.4769    0.0000 C   0  0  0  0  0  0  0  0  0  0  0  0
  1  2  2  0  0  0  0
  2 16  1  0  0  0  0
  2  3  1  0  0  0  0
  3  4  1  1  0  0  0
  3 12  1  0  0  0  0
  3  5  1  0  0  0  0
  5  6  1  1  0  0  0
  5 11  1  0  0  0  0
  5  7  1  0  0  0  0
  7  8  1  0  0  0  0
  8  9  1  0  0  0  0
  9 10  1  1  0  0  0
  9 11  1  0  0  0  0
  9 12  1  0  0  0  0
 12 13  1  1  0  0  0
 12 14  1  0  0  0  0
 14 15  2  0  0  0  0
 14 16  1  0  0  0  0
 16 17  1  0  0  0  0
 17 18  1  0  0  0  0
 18 19  1  1  0  0  0
 18 24  1  0  0  0  0
 18 20  1  0  0  0  0
 20 21  1  0  0  0  0
 21 22  1  0  0  0  0
 22 23  1  0  0  0  0
 23 24  1  0  0  0  0
 24 25  1  6  0  0  0
 24 26  1  0  0  0  0
 26 27  1  0  0  0  0
 27 41  1  0  0  0  0
 27 28  1  0  0  0  0
 28 29  1  0  0  0  0
 29 30  1  0  0  0  0
 30 31  1  0  0  0  0
 30 40  1  0  0  0  0
 31 39  1  0  0  0  0
 31 32  2  0  0  0  0
 32 33  1  0  0  0  0
 33 34  1  0  0  0  0
 34 39  1  0  0  0  0
 34 35  2  0  0  0  0
 35 36  1  0  0  0  0
 36 37  2  0  0  0  0
 37 38  1  0  0  0  0
 38 39  2  0  0  0  0
 40 41  1  0  0  0  0
M  END
$$$$

 OpenBabel10082008492D

 20 23  0  0  1  0  0  0  0  0999 V2000
   -0.8785   -1.4804    0.0000 O   0  0  0  0  0  0  0  0  0  0  0  0
    0.0000   -0.9695    0.0000 C   0  0  3  0  0  0  0  0  0  0  0  0
   -0.8426   -0.4900    0.0000 C   0  0  0  0  0  0  0  0  0  0  0  0
   -1.5591   -1.1431    0.0000 C   0  0  0  0  0  0  0  0  0  0  0  0
   -2.4829   -0.8492    0.0000 C   0  0  0  0  0  0  0  0  0  0  0  0
   -2.6904    0.0978    0.0000 C   0  0  0  0  0  0  0  0  0  0  0  0
   -3.6143    0.3917    0.0000 Cl  0  0  0  0  0  0  0  0  0  0  0  0
   -1.9739    0.7510    0.0000 C   0  0  0  0  0  0  0  0  0  0  0  0
   -1.0500    0.4571    0.0000 C   0  0  0  0  0  0  0  0  0  0  0  0
    0.8522   -1.4545    0.0000 C   0  0  0  0  0  0  0  0  0  0  0  0
    0.8590   -2.4130    0.0000 C   0  0  0  0  0  0  0  0  0  0  0  0
    1.6924   -2.8863    0.0000 C   0  0  0  0  0  0  0  0  0  0  0  0
    2.5190   -2.4013    0.0000 C   0  0  0  0  0  0  0  0  0  0  0  0
    2.5123   -1.4429    0.0000 C   0  0  0  0  0  0  0  0  0  0  0  0
    1.6789   -0.9695    0.0000 C   0  0  0  0  0  0  0  0  0  0  0  0
    1.6789   -0.0000    0.0000 C   0  0  0  0  0  0  0  0  0  0  0  0
    1.6789    0.9698    0.0000 N   0  0  0  0  0  0  0  0  0  0  0  0
    0.8266    1.4548    0.0000 C   0  0  0  0  0  0  0  0  0  0  0  0
    0.0000    0.9698    0.0000 C   0  0  0  0  0  0  0  0  0  0  0  0
    0.0000   -0.0000    0.0000 N   0  0  0  0  0  0  0  0  0  0  0  0
  1  2  1  0  0  0  0
  2 20  1  0  0  0  0
  2  3  1  0  0  0  0
  2 10  1  0  0  0  0
  3  9  1  0  0  0  0
  3  4  2  0  0  0  0
  4  5  1  0  0  0  0
  5  6  2  0  0  0  0
  6  7  1  0  0  0  0
  6  8  1  0  0  0  0
  8  9  2  0  0  0  0
 10 15  1  0  0  0  0
 10 11  2  0  0  0  0
 11 12  1  0  0  0  0
 12 13  2  0  0  0  0
 13 14  1  0  0  0  0
 14 15  2  0  0  0  0
 15 16  1  0  0  0  0
 16 20  1  0  0  0  0
 16 17  2  0  0  0  0
 17 18  1  0  0  0  0
 18 19  1  0  0  0  0
 19 20  1  0  0  0  0
M  END
$$$$

 OpenBabel10082008492D

 28 30  0  0  0  0  0  0  0  0999 V2000
   -0.0000    3.0000    0.0000 C   0  0  0  0  0  0  0  0  0  0  0  0
   -0.8660    2.5000    0.0000 C   0  0  0  0  0  0  0  0  0  0  0  0
   -0.8660    1.5000    0.0000 C   0  0  0  0  0  0  0  0  0  0  0  0
   -1.7321    1.0000    0.0000 C   0  0  0  0  0  0  0  0  0  0  0  0
   -2.5981    1.5000    0.0000 C   0  0  0  0  0  0  0  0  0  0  0  0
   -3.4641    1.0000    0.0000 C   0  0  0  0  0  0  0  0  0  0  0  0
   -4.3301    1.5000    0.0000 C   0  0  0  0  0  0  0  0  0  0  0  0
   -4.3301    2.5000    0.0000 C   0  0  0  0  0  0  0  0  0  0  0  0
   -3.4641    3.0000    0.0000 C   0  0  0  0  0  0  0  0  0  0  0  0
   -2.5981    2.5000    0.0000 C   0  0  0  0  0  0  0  0  0  0  0  0
   -1.7321   -0.0000    0.0000 C   0  0  0  0  0  0  0  0  0  0  0  0
   -0.8660   -0.5000    0.0000 C   0  0  0  0  0  0  0  0  0  0  0  0
   -0.8660   -1.5000    0.0000 C   0  0  0  0  0  0  0  0  0  0  0  0
   -1.7321   -2.0000    0.0000 C   0  0  0  0  0  0  0  0  0  0  0  0
   -1.7321   -3.0000    0.0000 O   0  0  0  0  0  0  0  0  0  0  0  0
   -0.8660   -3.5000    0.0000 C   0  0  0  0  0  0  0  0  0  0  0  0
   -0.8660   -4.5000    0.0000 C   0  0  0  0  0  0  0  0  0  0  0  0
   -0.0000   -5.0000    0.0000 N   0  0  0  0  0  0  0  0  0  0  0  0
   -0.0000   -6.0000    0.0000 C   0  0  0  0  0  0  0  0  0  0  0  0
    0.8660   -4.5000    0.0000 C   0  0  0  0  0  0  0  0  0  0  0  0
   -2.5981   -1.5000    0.0000 C   0  0  0  0  0  0  0  0  0  0  0  0
   -2.5981   -0.5000    0.0000 C   0  0  0  0  0  0  0  0  0  0  0  0
   -0.0000    1.0000    0.0000 C   0  0  0  0  0  0  0  0  0  0  0  0
    0.8660    1.5000    0.0000 C   0  0  0  0  0  0  0  0  0  0  0  0
    1.7321    1.0000    0.0000 C   0  0  0  0  0  0  0  0  0  0  0  0
    1.7321    0.0000    0.0000 C   0  0  0  0  0  0  0  0  0  0  0  0
    0.8660   -0.5000    0.0000 C   0  0  0  0  0  0  0  0  0  0  0  0
    0.0000   -0.0000    0.0000 C   0  0  0  0  0  0  0  0  0  0  0  0
  1  2  1  0  0  0  0
  2  3  1  0  0  0  0
  3  4  2  0  0  0  0
  3 23  1  0  0  0  0
  4  5  1  0  0  0  0
  4 11  1  0  0  0  0
  5 10  1  0  0  0  0
  5  6  2  0  0  0  0
  6  7  1  0  0  0  0
  7  8  2  0  0  0  0
  8  9  1  0  0  0  0
  9 10  2  0  0  0  0
 11 22  1  0  0  0  0
 11 12  2  0  0  0  0
 12 13  1  0  0  0  0
 13 14  2  0  0  0  0
 14 15  1  0  0  0  0
 14 21  1  0  0  0  0
 15 16  1  0  0  0  0
 16 17  1  0  0  0  0
 17 18  1  0  0  0  0
 18 19  1  0  0  0  0
 18 20  1  0  0  0  0
 21 22  2  0  0  0  0
 23 28  1  0  0  0  0
 23 24  2  0  0  0  0
 24 25  1  0  0  0  0
 25 26  2  0  0  0  0
 26 27  1  0  0  0  0
 27 28  2  0  0  0  0
M  END
$$$$

 OpenBabel10082008492D

 39 43  0  0  0  0  0  0  0  0999 V2000
    2.6456    2.5933    0.0000 C   0  0  0  0  0  0  0  0  0  0  0  0
    3.5116    2.0933    0.0000 C   0  0  0  0  0  0  0  0  0  0  0  0
    4.3776    2.5933    0.0000 C   0  0  0  0  0  0  0  0  0  0  0  0
    5.2437    2.0933    0.0000 C   0  0  0  0  0  0  0  0  0  0  0  0
    5.2437    1.0933    0.0000 C   0  0  0  0  0  0  0  0  0  0  0  0
    6.1097    0.5933    0.0000 C   0  0  0  0  0  0  0  0  0  0  0  0
    6.1097   -0.4067    0.0000 O   0  0  0  0  0  0  0  0  0  0  0  0
    6.9757    1.0933    0.0000 N   0  0  0  0  0  0  0  0  0  0  0  0
    7.8417    0.5933    0.0000 C   0  0  0  0  0  0  0  0  0  0  0  0
    8.7078    1.0933    0.0000 C   0  0  0  0  0  0  0  0  0  0  0  0
    9.5738    0.5933    0.0000 C   0  0  0  0  0  0  0  0  0  0  0  0
    9.5738   -0.4067    0.0000 C   0  0  0  0  0  0  0  0  0  0  0  0
   10.4398   -0.9067    0.0000 C   0  0  0  0  0  0  0  0  0  0  0  0
   10.4398   -1.9067    0.0000 N   0  0  0  0  0  0  0  0  0  0  0  0
   11.3059   -2.4067    0.0000 C   0  0  0  0  0  0  0  0  0  0  0  0
   11.3059   -3.4067    0.0000 C   0  0  0  0  0  0  0  0  0  0  0  0
   10.4398   -3.9067    0.0000 N   0  0  0  0  0  0  0  0  0  0  0  0
   10.4398   -4.9067    0.0000 C   0  0  0  0  0  0  0  0  0  0  0  0
    9.5738   -3.4067    0.0000 C   0  0  0  0  0  0  0  0  0  0  0  0
    9.5738   -2.4067    0.0000 C   0  0  0  0  0  0  0  0  0  0  0  0
    8.7078   -0.9067    0.0000 C   0  0  0  0  0  0  0  0  0  0  0  0
    8.7078   -1.9067    0.0000 C   0  0  0  0  0  0  0  0  0  0  0  0
    9.2078   -2.7728    0.0000 F   0  0  0  0  0  0  0  0  0  0  0  0
    9.7078   -1.9067    0.0000 F   0  0  0  0  0  0  0  0  0  0  0  0
    7.8417   -2.4067    0.0000 F   0  0  0  0  0  0  0  0  0  0  0  0
    7.8417   -0.4067    0.0000 C   0  0  0  0  0  0  0  0  0  0  0  0
    4.3776    0.5933    0.0000 C   0  0  0  0  0  0  0  0  0  0  0  0
    3.5116    1.0933    0.0000 C   0  0  0  0  0  0  0  0  0  0  0  0
    2.6456    0.5933    0.0000 C   0  0  0  0  0  0  0  0  0  0  0  0
    1.7796    0.0933    0.0000 C   0  0  0  0  0  0  0  0  0  0  0  0
    0.9135   -0.4067    0.0000 C   0  0  0  0  0  0  0  0  0  0  0  0
    0.8090   -1.4013    0.0000 C   0  0  0  0  0  0  0  0  0  0  0  0
   -0.1691   -1.6092    0.0000 N   0  0  0  0  0  0  0  0  0  0  0  0
   -0.6691   -0.7431    0.0000 C   0  0  0  0  0  0  0  0  0  0  0  0
   -1.6473   -0.5352    0.0000 C   0  0  0  0  0  0  0  0  0  0  0  0
   -1.9563    0.4158    0.0000 C   0  0  0  0  0  0  0  0  0  0  0  0
   -1.2872    1.1590    0.0000 C   0  0  0  0  0  0  0  0  0  0  0  0
   -0.3090    0.9511    0.0000 N   0  0  0  0  0  0  0  0  0  0  0  0
   -0.0000   -0.0000    0.0000 N   0  0  0  0  0  0  0  0  0  0  0  0
  1  2  1  0  0  0  0
  2 28  1  0  0  0  0
  2  3  2  0  0  0  0
  3  4  1  0  0  0  0
  4  5  2  0  0  0  0
  5  6  1  0  0  0  0
  5 27  1  0  0  0  0
  6  7  2  0  0  0  0
  6  8  1  0  0  0  0
  8  9  1  0  0  0  0
  9 26  1  0  0  0  0
  9 10  2  0  0  0  0
 10 11  1  0  0  0  0
 11 12  2  0  0  0  0
 12 13  1  0  0  0  0
 12 21  1  0  0  0  0
 13 14  1  0  0  0  0
 14 20  1  0  0  0  0
 14 15  1  0  0  0  0
 15 16  1  0  0  0  0
 16 17  1  0  0  0  0
 17 18  1  0  0  0  0
 17 19  1  0  0  0  0
 19 20  1  0  0  0  0
 21 22  1  0  0  0  0
 21 26  2  0  0  0  0
 22 23  1  0  0  0  0
 22 24  1  0  0  0  0
 22 25  1  0  0  0  0
 27 28  2  0  0  0  0
 28 29  1  0  0  0  0
 29 30  3  0  0  0  0
 30 31  1  0  0  0  0
 31 39  1  0  0  0  0
 31 32  2  0  0  0  0
 32 33  1  0  0  0  0
 33 34  2  0  0  0  0
 34 39  1  0  0  0  0
 34 35  1  0  0  0  0
 35 36  2  0  0  0  0
 36 37  1  0  0  0  0
 37 38  2  0  0  0  0
 38 39  1  0  0  0  0
M  END
$$$$

 OpenBabel10082008492D

 14 13  0  0  1  0  0  0  0  0999 V2000
    1.7321   -2.7321    0.0000 N   0  0  0  0  0  0  0  0  0  0  0  0
    1.7321   -1.7321    0.0000 C   0  0  0  0  0  0  0  0  0  0  0  0
    2.5981   -1.2321    0.0000 O   0  0  0  0  0  0  0  0  0  0  0  0
    0.8660   -1.2321    0.0000 N   0  0  0  0  0  0  0  0  0  0  0  0
   -0.0000   -1.7321    0.0000 C   0  0  1  0  0  0  0  0  0  0  0  0
    0.5000   -2.5981    0.0000 H   0  0  0  0  0  0  0  0  0  0  0  0
   -0.8660   -2.2321    0.0000 C   0  0  0  0  0  0  0  0  0  0  0  0
   -0.8660   -3.2321    0.0000 C   0  0  0  0  0  0  0  0  0  0  0  0
   -1.7321   -3.7321    0.0000 C   0  0  0  0  0  0  0  0  0  0  0  0
   -1.7321   -4.7321    0.0000 O   0  0  0  0  0  0  0  0  0  0  0  0
   -2.5981   -3.2321    0.0000 O   0  0  0  0  0  0  0  0  0  0  0  0
   -0.5000   -0.8660    0.0000 C   0  0  0  0  0  0  0  0  0  0  0  0
   -1.5000   -0.8660    0.0000 O   0  0  0  0  0  0  0  0  0  0  0  0
    0.0000    0.0000    0.0000 O   0  0  0  0  0  0  0  0  0  0  0  0
  1  2  1  0  0  0  0
  2  3  2  0  0  0  0
  2  4  1  0  0  0  0
  4  5  1  0  0  0  0
  5  6  1  6  0  0  0
  5  7  1  0  0  0  0
  5 12  1  0  0  0  0
  7  8  1  0  0  0  0
  8  9  1  0  0  0  0
  9 10  2  0  0  0  0
  9 11  1  0  0  0  0
 12 13  2  0  0  0  0
 12 14  1  0  0  0  0
M  END
$$$$

 OpenBabel10082008492D

 14 14  0  0  0  0  0  0  0  0999 V2000
    2.1507    4.0110    0.0000 N   0  0  0  0  0  0  0  0  0  0  0  0
    1.1593    4.1416    0.0000 C   0  0  0  0  0  0  0  0  0  0  0  0
    0.7766    5.0655    0.0000 N   0  0  0  0  0  0  0  0  0  0  0  0
    0.5505    3.3482    0.0000 N   0  0  0  0  0  0  0  0  0  0  0  0
    0.9332    2.4243    0.0000 C   0  0  0  0  0  0  0  0  0  0  0  0
    0.3244    1.6310    0.0000 C   0  0  0  0  0  0  0  0  0  0  0  0
    0.7071    0.7071    0.0000 N   0  0  0  0  0  0  0  0  0  0  0  0
    1.7071    0.7071    0.0000 C   0  0  0  0  0  0  0  0  0  0  0  0
    2.4142    0.0000    0.0000 C   0  0  0  0  0  0  0  0  0  0  0  0
    2.4142   -1.0000    0.0000 C   0  0  0  0  0  0  0  0  0  0  0  0
    1.7071   -1.7071    0.0000 C   0  0  0  0  0  0  0  0  0  0  0  0
    0.7071   -1.7071    0.0000 C   0  0  0  0  0  0  0  0  0  0  0  0
    0.0000   -1.0000    0.0000 C   0  0  0  0  0  0  0  0  0  0  0  0
   -0.0000   -0.0000    0.0000 C   0  0  0  0  0  0  0  0  0  0  0  0
  1  2  1  0  0  0  0
  2  3  1  0  0  0  0
  2  4  2  0  0  0  0
  4  5  1  0  0  0  0
  5  6  1  0  0  0  0
  6  7  1  0  0  0  0
  7 14  1  0  0  0  0
  7  8  1  0  0  0  0
  8  9  1  0  0  0  0
  9 10  1  0  0  0  0
 10 11  1  0  0  0  0
 11 12  1  0  0  0  0
 12 13  1  0  0  0  0
 13 14  1  0  0  0  0
M  END
$$$$

 OpenBabel10082008492D

 20 22  0  0  1  0  0  0  0  0999 V2000
    1.5522    0.6772    0.0000 O   0  0  0  0  0  0  0  0  0  0  0  0
    0.9888   -0.1490    0.0000 C   0  0  0  0  0  0  0  0  0  0  0  0
    1.4888   -1.0151    0.0000 N   0  0  0  0  0  0  0  0  0  0  0  0
    1.1235   -1.9459    0.0000 C   0  0  0  0  0  0  0  0  0  0  0  0
    1.8565   -2.6261    0.0000 C   0  0  0  0  0  0  0  0  0  0  0  0
    1.6340   -3.6010    0.0000 C   0  0  0  0  0  0  0  0  0  0  0  0
    0.6784   -3.8958    0.0000 C   0  0  0  0  0  0  0  0  0  0  0  0
    0.4559   -4.8707    0.0000 Cl  0  0  0  0  0  0  0  0  0  0  0  0
   -0.0546   -3.2156    0.0000 C   0  0  0  0  0  0  0  0  0  0  0  0
    0.1679   -2.2407    0.0000 C   0  0  0  0  0  0  0  0  0  0  0  0
   -0.6583   -1.6774    0.0000 C   0  0  0  0  0  0  0  0  0  0  0  0
   -1.5243   -2.1774    0.0000 C   0  0  0  0  0  0  0  0  0  0  0  0
   -1.5243   -3.1774    0.0000 C   0  0  0  0  0  0  0  0  0  0  0  0
   -2.3904   -3.6774    0.0000 C   0  0  0  0  0  0  0  0  0  0  0  0
   -3.2564   -3.1774    0.0000 C   0  0  0  0  0  0  0  0  0  0  0  0
   -3.2564   -2.1774    0.0000 C   0  0  0  0  0  0  0  0  0  0  0  0
   -2.3904   -1.6774    0.0000 C   0  0  0  0  0  0  0  0  0  0  0  0
   -0.7331   -0.6802    0.0000 N   0  0  0  0  0  0  0  0  0  0  0  0
    0.0000   -0.0000    0.0000 C   0  0  3  0  0  0  0  0  0  0  0  0
   -0.2948    0.9556    0.0000 O   0  0  0  0  0  0  0  0  0  0  0  0
  1  2  2  0  0  0  0
  2 19  1  0  0  0  0
  2  3  1  0  0  0  0
  3  4  1  0  0  0  0
  4 10  1  0  0  0  0
  4  5  2  0  0  0  0
  5  6  1  0  0  0  0
  6  7  2  0  0  0  0
  7  8  1  0  0  0  0
  7  9  1  0  0  0  0
  9 10  2  0  0  0  0
 10 11  1  0  0  0  0
 11 12  1  0  0  0  0
 11 18  2  0  0  0  0
 12 17  1  0  0  0  0
 12 13  2  0  0  0  0
 13 14  1  0  0  0  0
 14 15  2  0  0  0  0
 15 16  1  0  0  0  0
 16 17  2  0  0  0  0
 18 19  1  0  0  0  0
 19 20  1  0  0  0  0
M  END
$$$$

 OpenBabel10082008492D

 25 27  0  0  1  0  0  0  0  0999 V2000
   -1.7321   -1.0000    0.0000 C   0  0  0  0  0  0  0  0  0  0  0  0
   -1.7321    0.0000    0.0000 N   0  0  0  0  0  0  0  0  0  0  0  0
   -2.5981    0.5000    0.0000 C   0  0  0  0  0  0  0  0  0  0  0  0
   -2.5981    1.5000    0.0000 C   0  0  0  0  0  0  0  0  0  0  0  0
   -3.4641    2.0000    0.0000 O   0  0  0  0  0  0  0  0  0  0  0  0
   -4.3301    1.5000    0.0000 C   0  0  0  0  0  0  0  0  0  0  0  0
   -4.3301    0.5000    0.0000 C   0  0  0  0  0  0  0  0  0  0  0  0
   -5.1962    0.0000    0.0000 C   0  0  0  0  0  0  0  0  0  0  0  0
   -6.0622    0.5000    0.0000 C   0  0  0  0  0  0  0  0  0  0  0  0
   -6.9282    0.0000    0.0000 C   0  0  0  0  0  0  0  0  0  0  0  0
   -6.9282   -1.0000    0.0000 C   0  0  3  0  0  0  0  0  0  0  0  0
   -6.1192   -1.5878    0.0000 S   0  0  0  0  0  0  0  0  0  0  0  0
   -6.4282   -2.5388    0.0000 C   0  0  0  0  0  0  0  0  0  0  0  0
   -5.8404   -3.3479    0.0000 O   0  0  0  0  0  0  0  0  0  0  0  0
   -7.4282   -2.5388    0.0000 N   0  0  0  0  0  0  0  0  0  0  0  0
   -7.7372   -1.5878    0.0000 C   0  0  0  0  0  0  0  0  0  0  0  0
   -8.6883   -1.2788    0.0000 O   0  0  0  0  0  0  0  0  0  0  0  0
   -6.0622    1.5000    0.0000 C   0  0  0  0  0  0  0  0  0  0  0  0
   -5.1962    2.0000    0.0000 C   0  0  0  0  0  0  0  0  0  0  0  0
   -0.8660    0.5000    0.0000 C   0  0  0  0  0  0  0  0  0  0  0  0
   -0.8660    1.5000    0.0000 C   0  0  0  0  0  0  0  0  0  0  0  0
    0.0000    2.0000    0.0000 C   0  0  0  0  0  0  0  0  0  0  0  0
    0.8660    1.5000    0.0000 C   0  0  0  0  0  0  0  0  0  0  0  0
    0.8660    0.5000    0.0000 C   0  0  0  0  0  0  0  0  0  0  0  0
    0.0000   -0.0000    0.0000 N   0  0  0  0  0  0  0  0  0  0  0  0
  1  2  1  0  0  0  0
  2  3  1  0  0  0  0
  2 20  1  0  0  0  0
  3  4  1  0  0  0  0
  4  5  1  0  0  0  0
  5  6  1  0  0  0  0
  6 19  1  0  0  0  0
  6  7  2  0  0  0  0
  7  8  1  0  0  0  0
  8  9  2  0  0  0  0
  9 10  1  0  0  0  0
  9 18  1  0  0  0  0
 10 11  1  0  0  0  0
 11 16  1  0  0  0  0
 11 12  1  0  0  0  0
 12 13  1  0  0  0  0
 13 14  2  0  0  0  0
 13 15  1  0  0  0  0
 15 16  1  0  0  0  0
 16 17  2  0  0  0  0
 18 19  2  0  0  0  0
 20 25  1  0  0  0  0
 20 21  2  0  0  0  0
 21 22  1  0  0  0  0
 22 23  2  0  0  0  0
 23 24  1  0  0  0  0
 24 25  2  0  0  0  0
M  END
$$$$

 OpenBabel10082008492D

 27 30  0  0  0  0  0  0  0  0999 V2000
    2.5981    0.5000    0.0000 C   0  0  0  0  0  0  0  0  0  0  0  0
    2.5981    1.5000    0.0000 C   0  0  0  0  0  0  0  0  0  0  0  0
    1.7321    2.0000    0.0000 O   0  0  0  0  0  0  0  0  0  0  0  0
    0.8660    1.5000    0.0000 C   0  0  0  0  0  0  0  0  0  0  0  0
    0.0000    2.0000    0.0000 O   0  0  0  0  0  0  0  0  0  0  0  0
    0.8660    0.5000    0.0000 N   0  0  0  0  0  0  0  0  0  0  0  0
    1.7321    0.0000    0.0000 C   0  0  0  0  0  0  0  0  0  0  0  0
    1.7321   -1.0000    0.0000 C   0  0  0  0  0  0  0  0  0  0  0  0
    0.8660   -1.5000    0.0000 C   0  0  0  0  0  0  0  0  0  0  0  0
    0.8660   -2.5000    0.0000 C   0  0  0  0  0  0  0  0  0  0  0  0
    1.7670   -2.9339    0.0000 C   0  0  0  0  0  0  0  0  0  0  0  0
    2.5000   -2.2537    0.0000 C   0  0  0  0  0  0  0  0  0  0  0  0
    3.4556   -2.5485    0.0000 C   0  0  0  0  0  0  0  0  0  0  0  0
    3.6781   -3.5234    0.0000 C   0  0  0  0  0  0  0  0  0  0  0  0
    4.6337   -3.8181    0.0000 Cl  0  0  0  0  0  0  0  0  0  0  0  0
    2.9451   -4.2036    0.0000 C   0  0  0  0  0  0  0  0  0  0  0  0
    1.9895   -3.9088    0.0000 C   0  0  0  0  0  0  0  0  0  0  0  0
    1.3660   -4.6906    0.0000 C   0  0  0  0  0  0  0  0  0  0  0  0
    0.3660   -4.6906    0.0000 C   0  0  0  0  0  0  0  0  0  0  0  0
   -0.2575   -3.9088    0.0000 C   0  0  0  0  0  0  0  0  0  0  0  0
   -1.2130   -4.2036    0.0000 C   0  0  0  0  0  0  0  0  0  0  0  0
   -1.9461   -3.5234    0.0000 C   0  0  0  0  0  0  0  0  0  0  0  0
   -1.7236   -2.5485    0.0000 C   0  0  0  0  0  0  0  0  0  0  0  0
   -0.7680   -2.2537    0.0000 N   0  0  0  0  0  0  0  0  0  0  0  0
   -0.0349   -2.9339    0.0000 C   0  0  0  0  0  0  0  0  0  0  0  0
    0.0000   -1.0000    0.0000 C   0  0  0  0  0  0  0  0  0  0  0  0
    0.0000    0.0000    0.0000 C   0  0  0  0  0  0  0  0  0  0  0  0
  1  2  1  0  0  0  0
  2  3  1  0  0  0  0
  3  4  1  0  0  0  0
  4  5  2  0  0  0  0
  4  6  1  0  0  0  0
  6 27  1  0  0  0  0
  6  7  1  0  0  0  0
  7  8  1  0  0  0  0
  8  9  1  0  0  0  0
  9 10  2  0  0  0  0
  9 26  1  0  0  0  0
 10 25  1  0  0  0  0
 10 11  1  0  0  0  0
 11 17  1  0  0  0  0
 11 12  2  0  0  0  0
 12 13  1  0  0  0  0
 13 14  2  0  0  0  0
 14 15  1  0  0  0  0
 14 16  1  0  0  0  0
 16 17  2  0  0  0  0
 17 18  1  0  0  0  0
 18 19  1  0  0  0  0
 19 20  1  0  0  0  0
 20 25  1  0  0  0  0
 20 21  2  0  0  0  0
 21 22  1  0  0  0  0
 22 23  2  0  0  0  0
 23 24  1  0  0  0  0
 24 25  2  0  0  0  0
 26 27  1  0  0  0  0
M  END
$$$$

 OpenBabel10082008492D

 21 23  0  0  1  0  0  0  0  0999 V2000
    0.0000    3.0000    0.0000 C   0  0  0  0  0  0  0  0  0  0  0  0
   -0.8660    2.5000    0.0000 C   0  0  0  0  0  0  0  0  0  0  0  0
   -0.8660    1.5000    0.0000 C   0  0  3  0  0  0  0  0  0  0  0  0
   -1.7321    1.0000    0.0000 C   0  0  0  0  0  0  0  0  0  0  0  0
   -1.7321    0.0000    0.0000 C   0  0  0  0  0  0  0  0  0  0  0  0
   -2.5981   -0.5000    0.0000 C   0  0  0  0  0  0  0  0  0  0  0  0
   -3.4641    0.0000    0.0000 C   0  0  0  0  0  0  0  0  0  0  0  0
   -3.4641    1.0000    0.0000 C   0  0  0  0  0  0  0  0  0  0  0  0
   -2.5981    1.5000    0.0000 C   0  0  0  0  0  0  0  0  0  0  0  0
   -0.0000    1.0000    0.0000 C   0  0  0  0  0  0  0  0  0  0  0  0
    0.8660    1.5000    0.0000 C   0  0  0  0  0  0  0  0  0  0  0  0
    0.8660    2.5000    0.0000 O   0  0  0  0  0  0  0  0  0  0  0  0
    1.7321    1.0000    0.0000 C   0  0  0  0  0  0  0  0  0  0  0  0
    2.5981    1.5000    0.0000 C   0  0  0  0  0  0  0  0  0  0  0  0
    3.4641    1.0000    0.0000 C   0  0  0  0  0  0  0  0  0  0  0  0
    3.4641   -0.0000    0.0000 C   0  0  0  0  0  0  0  0  0  0  0  0
    2.5981   -0.5000    0.0000 C   0  0  0  0  0  0  0  0  0  0  0  0
    1.7321    0.0000    0.0000 C   0  0  0  0  0  0  0  0  0  0  0  0
    0.8660   -0.5000    0.0000 O   0  0  0  0  0  0  0  0  0  0  0  0
    0.0000   -0.0000    0.0000 C   0  0  0  0  0  0  0  0  0  0  0  0
   -0.8660   -0.5000    0.0000 O   0  0  0  0  0  0  0  0  0  0  0  0
  1  2  1  0  0  0  0
  2  3  1  0  0  0  0
  3  4  1  0  0  0  0
  3 10  1  0  0  0  0
  4  9  1  0  0  0  0
  4  5  2  0  0  0  0
  5  6  1  0  0  0  0
  6  7  2  0  0  0  0
  7  8  1  0  0  0  0
  8  9  2  0  0  0  0
 10 20  1  0  0  0  0
 10 11  2  0  0  0  0
 11 12  1  0  0  0  0
 11 13  1  0  0  0  0
 13 18  1  0  0  0  0
 13 14  2  0  0  0  0
 14 15  1  0  0  0  0
 15 16  2  0  0  0  0
 16 17  1  0  0  0  0
 17 18  2  0  0  0  0
 18 19  1  0  0  0  0
 19 20  1  0  0  0  0
 20 21  2  0  0  0  0
M  END
$$$$

 OpenBabel10082008492D

 24 26  0  0  0  0  0  0  0  0999 V2000
   -1.5000   -1.8660    0.0000 C   0  0  0  0  0  0  0  0  0  0  0  0
   -1.0000   -1.0000    0.0000 N   0  0  0  0  0  0  0  0  0  0  0  0
    0.0000   -1.0000    0.0000 S   0  0  0  0  0  0  0  0  0  0  0  0
    0.0000   -2.0000    0.0000 O   0  0  0  0  0  0  0  0  0  0  0  0
    1.0000   -1.0000    0.0000 O   0  0  0  0  0  0  0  0  0  0  0  0
   -0.0000   -0.0000    0.0000 C   0  0  0  0  0  0  0  0  0  0  0  0
   -0.8660    0.5000    0.0000 C   0  0  0  0  0  0  0  0  0  0  0  0
   -1.7321    0.0000    0.0000 C   0  0  0  0  0  0  0  0  0  0  0  0
   -1.7321   -1.0000    0.0000 C   0  0  0  0  0  0  0  0  0  0  0  0
   -2.5981   -1.5000    0.0000 C   0  0  0  0  0  0  0  0  0  0  0  0
   -3.4641   -1.0000    0.0000 C   0  0  0  0  0  0  0  0  0  0  0  0
   -4.4152   -1.3090    0.0000 N   0  0  0  0  0  0  0  0  0  0  0  0
   -4.7242   -2.2601    0.0000 H   0  0  0  0  0  0  0  0  0  0  0  0
   -5.0029   -0.5000    0.0000 C   0  0  0  0  0  0  0  0  0  0  0  0
   -4.4152    0.3090    0.0000 C   0  0  0  0  0  0  0  0  0  0  0  0
   -4.7242    1.2601    0.0000 C   0  0  0  0  0  0  0  0  0  0  0  0
   -5.7023    1.4680    0.0000 C   0  0  0  0  0  0  0  0  0  0  0  0
   -6.0113    2.4190    0.0000 C   0  0  0  0  0  0  0  0  0  0  0  0
   -5.3422    3.1622    0.0000 N   0  0  0  0  0  0  0  0  0  0  0  0
   -5.6512    4.1132    0.0000 C   0  0  0  0  0  0  0  0  0  0  0  0
   -4.3641    2.9543    0.0000 C   0  0  0  0  0  0  0  0  0  0  0  0
   -4.0550    2.0032    0.0000 C   0  0  0  0  0  0  0  0  0  0  0  0
   -3.4641   -0.0000    0.0000 C   0  0  0  0  0  0  0  0  0  0  0  0
   -2.5981    0.5000    0.0000 C   0  0  0  0  0  0  0  0  0  0  0  0
  1  2  1  0  0  0  0
  2  3  1  0  0  0  0
  3  4  2  0  0  0  0
  3  5  2  0  0  0  0
  3  6  1  0  0  0  0
  6  7  1  0  0  0  0
  7  8  1  0  0  0  0
  8 24  1  0  0  0  0
  8  9  2  0  0  0  0
  9 10  1  0  0  0  0
 10 11  2  0  0  0  0
 11 23  1  0  0  0  0
 11 12  1  0  0  0  0
 12 13  1  0  0  0  0
 12 14  1  0  0  0  0
 14 15  2  0  0  0  0
 15 16  1  0  0  0  0
 15 23  1  0  0  0  0
 16 22  1  0  0  0  0
 16 17  1  0  0  0  0
 17 18  1  0  0  0  0
 18 19  1  0  0  0  0
 19 20  1  0  0  0  0
 19 21  1  0  0  0  0
 21 22  1  0  0  0  0
 23 24  2  0  0  0  0
M  END
$$$$

 OpenBabel10082008492D

 31 34  0  0  1  0  0  0  0  0999 V2000
   -0.3660    2.3660    0.0000 C   0  0  0  0  0  0  0  0  0  0  0  0
   -0.8660    1.5000    0.0000 C   0  0  1  0  0  0  0  0  0  0  0  0
   -1.3660    2.3660    0.0000 H   0  0  0  0  0  0  0  0  0  0  0  0
   -1.7321    1.0000    0.0000 O   0  0  0  0  0  0  0  0  0  0  0  0
   -2.5981    1.5000    0.0000 C   0  0  0  0  0  0  0  0  0  0  0  0
   -3.4641    1.0000    0.0000 C   0  0  0  0  0  0  0  0  0  0  0  0
   -4.3301    1.5000    0.0000 C   0  0  0  0  0  0  0  0  0  0  0  0
   -5.1962    1.0000    0.0000 C   0  0  0  0  0  0  0  0  0  0  0  0
   -5.3007    0.0055    0.0000 C   0  0  0  0  0  0  0  0  0  0  0  0
   -6.2788   -0.2024    0.0000 N   0  0  0  0  0  0  0  0  0  0  0  0
   -6.7788    0.6636    0.0000 N   0  0  0  0  0  0  0  0  0  0  0  0
   -7.7734    0.7681    0.0000 C   0  0  0  0  0  0  0  0  0  0  0  0
   -8.3611   -0.0409    0.0000 C   0  0  0  0  0  0  0  0  0  0  0  0
   -9.3557    0.0636    0.0000 C   0  0  0  0  0  0  0  0  0  0  0  0
   -9.7624    0.9772    0.0000 N   0  0  0  0  0  0  0  0  0  0  0  0
   -9.1746    1.7862    0.0000 C   0  0  0  0  0  0  0  0  0  0  0  0
   -8.1801    1.6817    0.0000 C   0  0  0  0  0  0  0  0  0  0  0  0
   -6.1097    1.4067    0.0000 C   0  0  0  0  0  0  0  0  0  0  0  0
   -4.3301    2.5000    0.0000 C   0  0  0  0  0  0  0  0  0  0  0  0
   -3.4641    3.0000    0.0000 N   0  0  0  0  0  0  0  0  0  0  0  0
   -2.5981    2.5000    0.0000 C   0  0  0  0  0  0  0  0  0  0  0  0
   -1.7321    3.0000    0.0000 N   0  0  0  0  0  0  0  0  0  0  0  0
   -0.0000    1.0000    0.0000 C   0  0  0  0  0  0  0  0  0  0  0  0
    0.8660    1.5000    0.0000 C   0  0  0  0  0  0  0  0  0  0  0  0
    0.8660    2.5000    0.0000 Cl  0  0  0  0  0  0  0  0  0  0  0  0
    1.7321    1.0000    0.0000 C   0  0  0  0  0  0  0  0  0  0  0  0
    1.7321    0.0000    0.0000 C   0  0  0  0  0  0  0  0  0  0  0  0
    0.8660   -0.5000    0.0000 C   0  0  0  0  0  0  0  0  0  0  0  0
    0.8660   -1.5000    0.0000 F   0  0  0  0  0  0  0  0  0  0  0  0
   -0.0000   -0.0000    0.0000 C   0  0  0  0  0  0  0  0  0  0  0  0
   -0.8660   -0.5000    0.0000 Cl  0  0  0  0  0  0  0  0  0  0  0  0
  1  2  1  0  0  0  0
  2  3  1  1  0  0  0
  2  4  1  0  0  0  0
  2 23  1  0  0  0  0
  4  5  1  0  0  0  0
  5 21  1  0  0  0  0
  5  6  2  0  0  0  0
  6  7  1  0  0  0  0
  7  8  1  0  0  0  0
  7 19  2  0  0  0  0
  8 18  2  0  0  0  0
  8  9  1  0  0  0  0
  9 10  2  0  0  0  0
 10 11  1  0  0  0  0
 11 12  1  0  0  0  0
 11 18  1  0  0  0  0
 12 17  1  0  0  0  0
 12 13  1  0  0  0  0
 13 14  1  0  0  0  0
 14 15  1  0  0  0  0
 15 16  1  0  0  0  0
 16 17  1  0  0  0  0
 19 20  1  0  0  0  0
 20 21  2  0  0  0  0
 21 22  1  0  0  0  0
 23 30  1  0  0  0  0
 23 24  2  0  0  0  0
 24 25  1  0  0  0  0
 24 26  1  0  0  0  0
 26 27  2  0  0  0  0
 27 28  1  0  0  0  0
 28 29  1  0  0  0  0
 28 30  2  0  0  0  0
 30 31  1  0  0  0  0
M  END
$$$$

 OpenBabel10082008492D

 19 20  0  0  0  0  0  0  0  0999 V2000
   -2.5981    2.5000    0.0000 O   0  0  0  0  0  0  0  0  0  0  0  0
   -2.5981    1.5000    0.0000 C   0  0  0  0  0  0  0  0  0  0  0  0
   -3.4641    1.0000    0.0000 C   0  0  0  0  0  0  0  0  0  0  0  0
   -3.4641    0.0000    0.0000 N   0  0  0  0  0  0  0  0  0  0  0  0
   -2.6551   -0.5878    0.0000 C   0  0  0  0  0  0  0  0  0  0  0  0
   -2.9641   -1.5388    0.0000 C   0  0  0  0  0  0  0  0  0  0  0  0
   -3.9641   -1.5388    0.0000 N   0  0  0  0  0  0  0  0  0  0  0  0
   -4.2731   -0.5878    0.0000 C   0  0  0  0  0  0  0  0  0  0  0  0
   -5.2242   -0.2788    0.0000 N   0  3  0  0  0  0  0  0  0  0  0  0
   -5.4321    0.6994    0.0000 O   0  0  0  0  0  0  0  0  0  0  0  0
   -5.9673   -0.9479    0.0000 O   0  5  0  0  0  0  0  0  0  0  0  0
   -1.7321    1.0000    0.0000 N   0  0  0  0  0  0  0  0  0  0  0  0
   -0.8660    1.5000    0.0000 C   0  0  0  0  0  0  0  0  0  0  0  0
    0.0000    1.0000    0.0000 C   0  0  0  0  0  0  0  0  0  0  0  0
    0.8660    1.5000    0.0000 C   0  0  0  0  0  0  0  0  0  0  0  0
    1.7321    1.0000    0.0000 C   0  0  0  0  0  0  0  0  0  0  0  0
    1.7321   -0.0000    0.0000 C   0  0  0  0  0  0  0  0  0  0  0  0
    0.8660   -0.5000    0.0000 C   0  0  0  0  0  0  0  0  0  0  0  0
    0.0000   -0.0000    0.0000 C   0  0  0  0  0  0  0  0  0  0  0  0
  1  2  2  0  0  0  0
  2  3  1  0  0  0  0
  2 12  1  0  0  0  0
  3  4  1  0  0  0  0
  4  8  1  0  0  0  0
  4  5  1  0  0  0  0
  5  6  2  0  0  0  0
  6  7  1  0  0  0  0
  7  8  2  0  0  0  0
  8  9  1  0  0  0  0
  9 10  2  0  0  0  0
  9 11  1  0  0  0  0
 12 13  1  0  0  0  0
 13 14  1  0  0  0  0
 14 19  1  0  0  0  0
 14 15  2  0  0  0  0
 15 16  1  0  0  0  0
 16 17  2  0  0  0  0
 17 18  1  0  0  0  0
 18 19  2  0  0  0  0
M  CHG  2   9   1  11  -1
M  END
$$$$

 OpenBabel10082008492D

 16 18  0  0  0  0  0  0  0  0999 V2000
    3.5116    1.0933    0.0000 Cl  0  0  0  0  0  0  0  0  0  0  0  0
    3.5116    0.0933    0.0000 C   0  0  0  0  0  0  0  0  0  0  0  0
    4.3776   -0.4067    0.0000 C   0  0  0  0  0  0  0  0  0  0  0  0
    4.3776   -1.4067    0.0000 C   0  0  0  0  0  0  0  0  0  0  0  0
    3.5116   -1.9067    0.0000 C   0  0  0  0  0  0  0  0  0  0  0  0
    3.3037   -2.8849    0.0000 N   0  0  0  0  0  0  0  0  0  0  0  0
    2.3092   -2.9894    0.0000 S   0  0  0  0  0  0  0  0  0  0  0  0
    1.9025   -2.0759    0.0000 N   0  0  0  0  0  0  0  0  0  0  0  0
    2.6456   -1.4067    0.0000 C   0  0  0  0  0  0  0  0  0  0  0  0
    2.6456   -0.4067    0.0000 C   0  0  0  0  0  0  0  0  0  0  0  0
    1.7796    0.0933    0.0000 N   0  0  0  0  0  0  0  0  0  0  0  0
    0.9135   -0.4067    0.0000 C   0  0  0  0  0  0  0  0  0  0  0  0
    0.8090   -1.4013    0.0000 N   0  0  0  0  0  0  0  0  0  0  0  0
   -0.1691   -1.6092    0.0000 C   0  0  0  0  0  0  0  0  0  0  0  0
   -0.6691   -0.7431    0.0000 C   0  0  0  0  0  0  0  0  0  0  0  0
   -0.0000   -0.0000    0.0000 N   0  0  0  0  0  0  0  0  0  0  0  0
  1  2  1  0  0  0  0
  2 10  2  0  0  0  0
  2  3  1  0  0  0  0
  3  4  2  0  0  0  0
  4  5  1  0  0  0  0
  5  9  1  0  0  0  0
  5  6  2  0  0  0  0
  6  7  1  0  0  0  0
  7  8  1  0  0  0  0
  8  9  2  0  0  0  0
  9 10  1  0  0  0  0
 10 11  1  0  0  0  0
 11 12  1  0  0  0  0
 12 16  1  0  0  0  0
 12 13  2  0  0  0  0
 13 14  1  0  0  0  0
 14 15  1  0  0  0  0
 15 16  1  0  0  0  0
M  END
$$$$

 OpenBabel10082008492D

 36 39  0  0  0  0  0  0  0  0999 V2000
   -1.7321   -2.0000    0.0000 C   0  0  0  0  0  0  0  0  0  0  0  0
   -0.8660   -1.5000    0.0000 O   0  0  0  0  0  0  0  0  0  0  0  0
   -0.8660   -0.5000    0.0000 C   0  0  0  0  0  0  0  0  0  0  0  0
   -1.7321    0.0000    0.0000 C   0  0  0  0  0  0  0  0  0  0  0  0
   -1.7321    1.0000    0.0000 C   0  0  0  0  0  0  0  0  0  0  0  0
   -2.5981    1.5000    0.0000 N   0  0  0  0  0  0  0  0  0  0  0  0
   -3.4641    1.0000    0.0000 C   0  0  0  0  0  0  0  0  0  0  0  0
   -3.4641    0.0000    0.0000 C   0  0  0  0  0  0  0  0  0  0  0  0
   -2.5981   -0.5000    0.0000 C   0  0  0  0  0  0  0  0  0  0  0  0
   -1.7321   -1.0000    0.0000 N   0  0  0  0  0  0  0  0  0  0  0  0
   -4.3301   -0.5000    0.0000 C   0  0  0  0  0  0  0  0  0  0  0  0
   -5.1962    0.0000    0.0000 N   0  0  0  0  0  0  0  0  0  0  0  0
   -5.1962    1.0000    0.0000 C   0  0  0  0  0  0  0  0  0  0  0  0
   -6.0622    1.5000    0.0000 C   0  0  0  0  0  0  0  0  0  0  0  0
   -6.0622    2.5000    0.0000 C   0  0  0  0  0  0  0  0  0  0  0  0
   -6.9282    3.0000    0.0000 O   0  0  0  0  0  0  0  0  0  0  0  0
   -7.7942    2.5000    0.0000 C   0  0  0  0  0  0  0  0  0  0  0  0
   -7.7942    1.5000    0.0000 C   0  0  0  0  0  0  0  0  0  0  0  0
   -8.6603    1.0000    0.0000 C   0  0  0  0  0  0  0  0  0  0  0  0
   -8.6603    0.0000    0.0000 N   0  0  0  0  0  0  0  0  0  0  0  0
   -7.7942   -0.5000    0.0000 C   0  0  0  0  0  0  0  0  0  0  0  0
   -7.7942   -1.5000    0.0000 C   0  0  0  0  0  0  0  0  0  0  0  0
   -8.6603   -2.0000    0.0000 N   0  0  0  0  0  0  0  0  0  0  0  0
   -8.6603   -3.0000    0.0000 C   0  0  0  0  0  0  0  0  0  0  0  0
   -9.5263   -1.5000    0.0000 C   0  0  0  0  0  0  0  0  0  0  0  0
   -9.5263   -0.5000    0.0000 C   0  0  0  0  0  0  0  0  0  0  0  0
   -5.1962    3.0000    0.0000 C   0  0  0  0  0  0  0  0  0  0  0  0
   -5.1962    4.0000    0.0000 O   0  0  0  0  0  0  0  0  0  0  0  0
   -6.0622    4.5000    0.0000 C   0  0  0  0  0  0  0  0  0  0  0  0
   -4.3301    2.5000    0.0000 C   0  0  0  0  0  0  0  0  0  0  0  0
   -4.3301    1.5000    0.0000 C   0  0  0  0  0  0  0  0  0  0  0  0
   -0.8660    1.5000    0.0000 C   0  0  0  0  0  0  0  0  0  0  0  0
   -0.8660    2.5000    0.0000 Cl  0  0  0  0  0  0  0  0  0  0  0  0
    0.0000    1.0000    0.0000 C   0  0  0  0  0  0  0  0  0  0  0  0
    0.0000    0.0000    0.0000 C   0  0  0  0  0  0  0  0  0  0  0  0
    0.8660   -0.5000    0.0000 Cl  0  0  0  0  0  0  0  0  0  0  0  0
  1  2  1  0  0  0  0
  2  3  1  0  0  0  0
  3 35  1  0  0  0  0
  3  4  2  0  0  0  0
  4  5  1  0  0  0  0
  5  6  1  0  0  0  0
  5 32  2  0  0  0  0
  6  7  1  0  0  0  0
  7 31  1  0  0  0  0
  7  8  2  0  0  0  0
  8  9  1  0  0  0  0
  8 11  1  0  0  0  0
  9 10  3  0  0  0  0
 11 12  2  0  0  0  0
 12 13  1  0  0  0  0
 13 31  1  0  0  0  0
 13 14  2  0  0  0  0
 14 15  1  0  0  0  0
 15 16  1  0  0  0  0
 15 27  2  0  0  0  0
 16 17  1  0  0  0  0
 17 18  1  0  0  0  0
 18 19  1  0  0  0  0
 19 20  1  0  0  0  0
 20 26  1  0  0  0  0
 20 21  1  0  0  0  0
 21 22  1  0  0  0  0
 22 23  1  0  0  0  0
 23 24  1  0  0  0  0
 23 25  1  0  0  0  0
 25 26  1  0  0  0  0
 27 28  1  0  0  0  0
 27 30  1  0  0  0  0
 28 29  1  0  0  0  0
 30 31  2  0  0  0  0
 32 33  1  0  0  0  0
 32 34  1  0  0  0  0
 34 35  2  0  0  0  0
 35 36  1  0  0  0  0
M  END
$$$$

 OpenBabel10082008492D

 13 15  0  0  1  0  0  0  0  0999 V2000
    2.1828    0.4540    0.0000 C   0  0  0  0  0  0  0  0  0  0  0  0
    1.1843    0.3432    0.0000 C   0  0  3  0  0  0  0  0  0  0  0  0
    1.1843    1.4417    0.0000 C   0  0  0  0  0  0  0  0  0  0  0  0
    0.2924    1.9566    0.0000 C   0  0  3  0  0  0  0  0  0  0  0  0
    0.8078    1.0649    0.0000 C   0  0  0  0  0  0  0  0  0  0  0  0
    0.8078   -0.0678    0.0000 C   0  0  3  0  0  0  0  0  0  0  0  0
    0.7791   -1.0720    0.0000 C   0  0  0  0  0  0  0  0  0  0  0  0
    1.7790   -0.3425    0.0000 C   0  0  0  0  0  0  0  0  0  0  0  0
   -0.0312   -0.3425    0.0000 C   0  0  0  0  0  0  0  0  0  0  0  0
   -0.5994    0.4127    0.0000 C   0  0  3  0  0  0  0  0  0  0  0  0
   -1.5724    0.6627    0.0000 N   0  0  0  0  0  0  0  0  0  0  0  0
   -0.5994    1.4417    0.0000 C   0  0  0  0  0  0  0  0  0  0  0  0
    0.0000   -0.0000    0.0000 C   0  0  0  0  0  0  0  0  0  0  0  0
  1  2  1  0  0  0  0
  2  8  1  0  0  0  0
  2 13  1  0  0  0  0
  2  3  1  0  0  0  0
  3  4  1  0  0  0  0
  4 12  1  0  0  0  0
  4  5  1  0  0  0  0
  5  6  1  0  0  0  0
  6  7  1  0  0  0  0
  6  8  1  0  0  0  0
  6  9  1  0  0  0  0
  9 10  1  0  0  0  0
 10 11  1  0  0  0  0
 10 12  1  0  0  0  0
 10 13  1  0  0  0  0
M  END
$$$$

 OpenBabel10082008492D

 13 13  0  0  0  0  0  0  0  0999 V2000
   -3.4641   -3.0000    0.0000 C   0  0  0  0  0  0  0  0  0  0  0  0
   -2.5981   -3.5000    0.0000 N   0  0  0  0  0  0  0  0  0  0  0  0
   -1.7321   -3.0000    0.0000 C   0  0  0  0  0  0  0  0  0  0  0  0
   -1.7321   -2.0000    0.0000 N   0  0  0  0  0  0  0  0  0  0  0  0
   -0.8660   -1.5000    0.0000 C   0  0  0  0  0  0  0  0  0  0  0  0
   -0.8660   -3.5000    0.0000 N   0  0  0  0  0  0  0  0  0  0  0  0
   -0.0000   -3.0000    0.0000 C   0  0  0  0  0  0  0  0  0  0  0  0
    0.8660   -3.5000    0.0000 C   0  0  0  0  0  0  0  0  0  0  0  0
    0.8660   -4.5000    0.0000 C   0  0  0  0  0  0  0  0  0  0  0  0
    1.7321   -5.0000    0.0000 C   0  0  0  0  0  0  0  0  0  0  0  0
    2.5981   -4.5000    0.0000 C   0  0  0  0  0  0  0  0  0  0  0  0
    2.5981   -3.5000    0.0000 C   0  0  0  0  0  0  0  0  0  0  0  0
    1.7321   -3.0000    0.0000 C   0  0  0  0  0  0  0  0  0  0  0  0
  1  2  1  0  0  0  0
  2  3  2  0  0  0  0
  3  4  1  0  0  0  0
  3  6  1  0  0  0  0
  4  5  1  0  0  0  0
  6  7  1  0  0  0  0
  7  8  1  0  0  0  0
  8 13  1  0  0  0  0
  8  9  2  0  0  0  0
  9 10  1  0  0  0  0
 10 11  2  0  0  0  0
 11 12  1  0  0  0  0
 12 13  2  0  0  0  0
M  END
$$$$

 OpenBabel10082008492D

 18 19  0  0  0  0  0  0  0  0999 V2000
    3.3554    3.6160    0.0000 C   0  0  0  0  0  0  0  0  0  0  0  0
    2.9487    2.7024    0.0000 C   0  0  0  0  0  0  0  0  0  0  0  0
    3.4487    1.8364    0.0000 N   0  0  0  0  0  0  0  0  0  0  0  0
    2.7796    1.0933    0.0000 O   0  0  0  0  0  0  0  0  0  0  0  0
    1.8660    1.5000    0.0000 C   0  0  0  0  0  0  0  0  0  0  0  0
    1.0000    1.0000    0.0000 N   0  0  0  0  0  0  0  0  0  0  0  0
    1.0000   -0.0000    0.0000 S   0  0  0  0  0  0  0  0  0  0  0  0
    2.0000   -0.0000    0.0000 O   0  0  0  0  0  0  0  0  0  0  0  0
    1.0000   -1.0000    0.0000 O   0  0  0  0  0  0  0  0  0  0  0  0
    0.0000   -0.0000    0.0000 C   0  0  0  0  0  0  0  0  0  0  0  0
   -0.5000    0.8660    0.0000 C   0  0  0  0  0  0  0  0  0  0  0  0
   -1.5000    0.8660    0.0000 C   0  0  0  0  0  0  0  0  0  0  0  0
   -2.0000    0.0000    0.0000 C   0  0  0  0  0  0  0  0  0  0  0  0
   -3.0000   -0.0000    0.0000 N   0  0  0  0  0  0  0  0  0  0  0  0
   -1.5000   -0.8660    0.0000 C   0  0  0  0  0  0  0  0  0  0  0  0
   -0.5000   -0.8660    0.0000 C   0  0  0  0  0  0  0  0  0  0  0  0
    1.9706    2.4945    0.0000 C   0  0  0  0  0  0  0  0  0  0  0  0
    1.2274    3.1637    0.0000 C   0  0  0  0  0  0  0  0  0  0  0  0
  1  2  1  0  0  0  0
  2 17  1  0  0  0  0
  2  3  2  0  0  0  0
  3  4  1  0  0  0  0
  4  5  1  0  0  0  0
  5  6  1  0  0  0  0
  5 17  2  0  0  0  0
  6  7  1  0  0  0  0
  7  8  2  0  0  0  0
  7  9  2  0  0  0  0
  7 10  1  0  0  0  0
 10 16  1  0  0  0  0
 10 11  2  0  0  0  0
 11 12  1  0  0  0  0
 12 13  2  0  0  0  0
 13 14  1  0  0  0  0
 13 15  1  0  0  0  0
 15 16  2  0  0  0  0
 17 18  1  0  0  0  0
M  END
$$$$

 OpenBabel10082008492D

 31 35  0  0  1  0  0  0  0  0999 V2000
    2.4068   -2.2167    0.0000 C   0  0  0  0  0  0  0  0  0  0  0  0
    1.4358   -2.2273    0.0000 N   0  0  0  0  0  0  0  0  0  0  0  0
    0.8737   -3.0191    0.0000 N   0  0  0  0  0  0  0  0  0  0  0  0
   -0.0531   -2.7292    0.0000 C   0  0  0  0  0  0  0  0  0  0  0  0
   -0.0637   -1.7581    0.0000 N   0  0  0  0  0  0  0  0  0  0  0  0
    0.8565   -1.4480    0.0000 C   0  0  0  0  0  0  0  0  0  0  0  0
    0.8459   -0.4770    0.0000 C   0  0  1  0  0  0  0  0  0  0  0  0
    0.0047   -0.9692    0.0000 H   0  0  0  0  0  0  0  0  0  0  0  0
    1.6927    0.0185    0.0000 C   0  0  0  0  0  0  0  0  0  0  0  0
    2.5444   -0.4584    0.0000 N   0  0  0  0  0  0  0  0  0  0  0  0
    3.3792    0.0370    0.0000 N   0  0  0  0  0  0  0  0  0  0  0  0
    4.2288   -0.4407    0.0000 H   0  0  0  0  0  0  0  0  0  0  0  0
    3.3686    1.0090    0.0000 C   0  0  0  0  0  0  0  0  0  0  0  0
    4.2100    1.5009    0.0000 O   0  0  0  0  0  0  0  0  0  0  0  0
    2.5230    1.4972    0.0000 C   0  0  0  0  0  0  0  0  0  0  0  0
    2.5123    2.4750    0.0000 C   0  0  0  0  0  0  0  0  0  0  0  0
    1.6490    2.9460    0.0000 C   0  0  0  0  0  0  0  0  0  0  0  0
    1.6341    3.9205    0.0000 F   0  0  0  0  0  0  0  0  0  0  0  0
    0.8138    2.4564    0.0000 C   0  0  0  0  0  0  0  0  0  0  0  0
    0.8245    1.4786    0.0000 C   0  0  0  0  0  0  0  0  0  0  0  0
    1.6821    0.9905    0.0000 C   0  0  0  0  0  0  0  0  0  0  0  0
   -0.0106    0.9720    0.0000 N   0  0  0  0  0  0  0  0  0  0  0  0
    0.0000    0.0000    0.0000 C   0  0  2  0  0  0  0  0  0  0  0  0
   -0.8389   -0.4962    0.0000 H   0  0  0  0  0  0  0  0  0  0  0  0
   -0.8459    0.4770    0.0000 C   0  0  0  0  0  0  0  0  0  0  0  0
   -1.7066    0.0273    0.0000 C   0  0  0  0  0  0  0  0  0  0  0  0
   -2.5263    0.5479    0.0000 C   0  0  0  0  0  0  0  0  0  0  0  0
   -2.4853    1.5181    0.0000 C   0  0  0  0  0  0  0  0  0  0  0  0
   -3.3051    2.0387    0.0000 F   0  0  0  0  0  0  0  0  0  0  0  0
   -1.6246    1.9677    0.0000 C   0  0  0  0  0  0  0  0  0  0  0  0
   -0.8049    1.4472    0.0000 C   0  0  0  0  0  0  0  0  0  0  0  0
  1  2  1  0  0  0  0
  2  6  1  0  0  0  0
  2  3  1  0  0  0  0
  3  4  2  0  0  0  0
  4  5  1  0  0  0  0
  5  6  2  0  0  0  0
  6  7  1  0  0  0  0
  7  8  1  1  0  0  0
  7 23  1  0  0  0  0
  7  9  1  0  0  0  0
  9 21  1  0  0  0  0
  9 10  2  0  0  0  0
 10 11  1  0  0  0  0
 11 12  1  0  0  0  0
 11 13  1  0  0  0  0
 13 14  2  0  0  0  0
 13 15  1  0  0  0  0
 15 21  1  0  0  0  0
 15 16  2  0  0  0  0
 16 17  1  0  0  0  0
 17 18  1  0  0  0  0
 17 19  2  0  0  0  0
 19 20  1  0  0  0  0
 20 21  2  0  0  0  0
 20 22  1  0  0  0  0
 22 23  1  0  0  0  0
 23 24  1  6  0  0  0
 23 25  1  0  0  0  0
 25 31  1  0  0  0  0
 25 26  2  0  0  0  0
 26 27  1  0  0  0  0
 27 28  2  0  0  0  0
 28 29  1  0  0  0  0
 28 30  1  0  0  0  0
 30 31  2  0  0  0  0
M  END
$$$$

 OpenBabel10082008492D

 24 23  0  0  0  0  0  0  0  0999 V2000
   17.3205    0.0000    0.0000 C   0  0  0  0  0  0  0  0  0  0  0  0
   17.3205    1.0000    0.0000 C   0  0  0  0  0  0  0  0  0  0  0  0
   16.4545    1.5000    0.0000 C   0  0  0  0  0  0  0  0  0  0  0  0
   15.5885    1.0000    0.0000 C   0  0  0  0  0  0  0  0  0  0  0  0
   15.5885    0.0000    0.0000 C   0  0  0  0  0  0  0  0  0  0  0  0
   14.7224   -0.5000    0.0000 C   0  0  0  0  0  0  0  0  0  0  0  0
   14.7224   -1.5000    0.0000 C   0  0  0  0  0  0  0  0  0  0  0  0
   15.5885   -2.0000    0.0000 C   0  0  0  0  0  0  0  0  0  0  0  0
   15.5885   -3.0000    0.0000 C   0  0  0  0  0  0  0  0  0  0  0  0
   16.4545   -3.5000    0.0000 C   0  0  0  0  0  0  0  0  0  0  0  0
   17.3205   -3.0000    0.0000 C   0  0  0  0  0  0  0  0  0  0  0  0
   18.1865   -3.5000    0.0000 C   0  0  0  0  0  0  0  0  0  0  0  0
   19.0526   -3.0000    0.0000 C   0  0  0  0  0  0  0  0  0  0  0  0
   19.0526   -2.0000    0.0000 C   0  0  0  0  0  0  0  0  0  0  0  0
   19.9186   -1.5000    0.0000 C   0  0  0  0  0  0  0  0  0  0  0  0
   19.9186   -0.5000    0.0000 C   0  0  0  0  0  0  0  0  0  0  0  0
   19.0526   -0.0000    0.0000 C   0  0  0  0  0  0  0  0  0  0  0  0
   19.0526    1.0000    0.0000 C   0  0  0  0  0  0  0  0  0  0  0  0
   18.1865    1.5000    0.0000 C   0  0  0  0  0  0  0  0  0  0  0  0
   18.1865    2.5000    0.0000 C   0  0  0  0  0  0  0  0  0  0  0  0
   17.3205    3.0000    0.0000 O   0  0  0  0  0  0  0  0  0  0  0  0
   19.0526    3.0000    0.0000 O   0  0  0  0  0  0  0  0  0  0  0  0
   19.0526    4.0000    0.0000 C   0  0  0  0  0  0  0  0  0  0  0  0
   18.1865    4.5000    0.0000 C   0  0  0  0  0  0  0  0  0  0  0  0
  1  2  1  0  0  0  0
  2  3  1  0  0  0  0
  3  4  2  0  0  0  0
  4  5  1  0  0  0  0
  5  6  1  0  0  0  0
  6  7  2  0  0  0  0
  7  8  1  0  0  0  0
  8  9  1  0  0  0  0
  9 10  2  0  0  0  0
 10 11  1  0  0  0  0
 11 12  1  0  0  0  0
 12 13  2  0  0  0  0
 13 14  1  0  0  0  0
 14 15  1  0  0  0  0
 15 16  2  0  0  0  0
 16 17  1  0  0  0  0
 17 18  1  0  0  0  0
 18 19  1  0  0  0  0
 19 20  1  0  0  0  0
 20 21  2  0  0  0  0
 20 22  1  0  0  0  0
 22 23  1  0  0  0  0
 23 24  1  0  0  0  0
M  END
$$$$

 OpenBabel10082008492D

 12 12  0  0  0  0  0  0  0  0999 V2000
   -0.8660   -1.5000    0.0000 C   0  0  0  0  0  0  0  0  0  0  0  0
   -0.8660   -0.5000    0.0000 C   0  0  0  0  0  0  0  0  0  0  0  0
   -1.7321   -0.0000    0.0000 N   0  0  0  0  0  0  0  0  0  0  0  0
   -1.7321    1.0000    0.0000 C   0  0  0  0  0  0  0  0  0  0  0  0
   -0.8660    1.5000    0.0000 C   0  0  0  0  0  0  0  0  0  0  0  0
   -0.8660    2.5000    0.0000 C   0  0  0  0  0  0  0  0  0  0  0  0
   -0.0000    3.0000    0.0000 O   0  0  0  0  0  0  0  0  0  0  0  0
   -0.0000    1.0000    0.0000 C   0  0  0  0  0  0  0  0  0  0  0  0
    0.8660    1.5000    0.0000 C   0  0  0  0  0  0  0  0  0  0  0  0
    1.7321    1.0000    0.0000 O   0  0  0  0  0  0  0  0  0  0  0  0
    0.0000    0.0000    0.0000 C   0  0  0  0  0  0  0  0  0  0  0  0
    0.8660   -0.5000    0.0000 O   0  0  0  0  0  0  0  0  0  0  0  0
  1  2  1  0  0  0  0
  2 11  1  0  0  0  0
  2  3  2  0  0  0  0
  3  4  1  0  0  0  0
  4  5  2  0  0  0  0
  5  6  1  0  0  0  0
  5  8  1  0  0  0  0
  6  7  1  0  0  0  0
  8  9  1  0  0  0  0
  8 11  2  0  0  0  0
  9 10  1  0  0  0  0
 11 12  1  0  0  0  0
M  END
$$$$

 OpenBabel10082008492D

 32 34  0  0  0  0  0  0  0  0999 V2000
   -2.5981    1.5000    0.0000 C   0  0  0  0  0  0  0  0  0  0  0  0
   -2.5981    0.5000    0.0000 N   0  0  0  0  0  0  0  0  0  0  0  0
   -1.7321    0.0000    0.0000 C   0  0  0  0  0  0  0  0  0  0  0  0
   -1.7321   -1.0000    0.0000 O   0  0  0  0  0  0  0  0  0  0  0  0
   -0.8660    0.5000    0.0000 C   0  0  0  0  0  0  0  0  0  0  0  0
   -0.8660    1.5000    0.0000 C   0  0  0  0  0  0  0  0  0  0  0  0
    0.0000    2.0000    0.0000 C   0  0  0  0  0  0  0  0  0  0  0  0
    0.0000    3.0000    0.0000 O   0  0  0  0  0  0  0  0  0  0  0  0
    0.8660    3.5000    0.0000 C   0  0  0  0  0  0  0  0  0  0  0  0
    0.8660    4.5000    0.0000 C   0  0  0  0  0  0  0  0  0  0  0  0
    1.7321    5.0000    0.0000 C   0  0  0  0  0  0  0  0  0  0  0  0
    2.5981    4.5000    0.0000 C   0  0  0  0  0  0  0  0  0  0  0  0
    3.4641    5.0000    0.0000 N   0  0  0  0  0  0  0  0  0  0  0  0
    4.3301    4.5000    0.0000 C   0  0  0  0  0  0  0  0  0  0  0  0
    4.3301    3.5000    0.0000 O   0  0  0  0  0  0  0  0  0  0  0  0
    5.1962    5.0000    0.0000 N   0  0  0  0  0  0  0  0  0  0  0  0
    6.0622    4.5000    0.0000 C   0  0  0  0  0  0  0  0  0  0  0  0
    6.9282    5.0000    0.0000 C   0  0  0  0  0  0  0  0  0  0  0  0
    7.7942    4.5000    0.0000 C   0  0  0  0  0  0  0  0  0  0  0  0
    7.7942    3.5000    0.0000 C   0  0  0  0  0  0  0  0  0  0  0  0
    8.6603    3.0000    0.0000 Cl  0  0  0  0  0  0  0  0  0  0  0  0
    6.9282    3.0000    0.0000 C   0  0  0  0  0  0  0  0  0  0  0  0
    6.9282    2.0000    0.0000 C   0  0  0  0  0  0  0  0  0  0  0  0
    7.4282    1.1340    0.0000 F   0  0  0  0  0  0  0  0  0  0  0  0
    7.9282    2.0000    0.0000 F   0  0  0  0  0  0  0  0  0  0  0  0
    6.0622    1.5000    0.0000 F   0  0  0  0  0  0  0  0  0  0  0  0
    6.0622    3.5000    0.0000 C   0  0  0  0  0  0  0  0  0  0  0  0
    2.5981    3.5000    0.0000 C   0  0  0  0  0  0  0  0  0  0  0  0
    1.7321    3.0000    0.0000 C   0  0  0  0  0  0  0  0  0  0  0  0
    0.8660    1.5000    0.0000 C   0  0  0  0  0  0  0  0  0  0  0  0
    0.8660    0.5000    0.0000 C   0  0  0  0  0  0  0  0  0  0  0  0
    0.0000   -0.0000    0.0000 N   0  0  0  0  0  0  0  0  0  0  0  0
  1  2  1  0  0  0  0
  2  3  1  0  0  0  0
  3  4  2  0  0  0  0
  3  5  1  0  0  0  0
  5 32  1  0  0  0  0
  5  6  2  0  0  0  0
  6  7  1  0  0  0  0
  7  8  1  0  0  0  0
  7 30  2  0  0  0  0
  8  9  1  0  0  0  0
  9 29  1  0  0  0  0
  9 10  2  0  0  0  0
 10 11  1  0  0  0  0
 11 12  2  0  0  0  0
 12 13  1  0  0  0  0
 12 28  1  0  0  0  0
 13 14  1  0  0  0  0
 14 15  2  0  0  0  0
 14 16  1  0  0  0  0
 16 17  1  0  0  0  0
 17 27  1  0  0  0  0
 17 18  2  0  0  0  0
 18 19  1  0  0  0  0
 19 20  2  0  0  0  0
 20 21  1  0  0  0  0
 20 22  1  0  0  0  0
 22 23  1  0  0  0  0
 22 27  2  0  0  0  0
 23 24  1  0  0  0  0
 23 25  1  0  0  0  0
 23 26  1  0  0  0  0
 28 29  2  0  0  0  0
 30 31  1  0  0  0  0
 31 32  2  0  0  0  0
M  END
$$$$

 OpenBabel10082008492D

 34 37  0  0  0  0  0  0  0  0999 V2000
    3.2321    1.8660    0.0000 C   0  0  0  0  0  0  0  0  0  0  0  0
    2.3660    2.3660    0.0000 N   0  0  0  0  0  0  0  0  0  0  0  0
    2.3660    3.3660    0.0000 C   0  0  0  0  0  0  0  0  0  0  0  0
    1.5000    1.8660    0.0000 C   0  0  0  0  0  0  0  0  0  0  0  0
    0.6340    2.3660    0.0000 O   0  0  0  0  0  0  0  0  0  0  0  0
    1.5000    0.8660    0.0000 C   0  0  0  0  0  0  0  0  0  0  0  0
    2.5000    0.8660    0.0000 C   0  0  0  0  0  0  0  0  0  0  0  0
    3.0000    0.0000    0.0000 C   0  0  0  0  0  0  0  0  0  0  0  0
    4.0000    0.0000    0.0000 N   0  0  0  0  0  0  0  0  0  0  0  0
    4.5000   -0.8660    0.0000 C   0  0  0  0  0  0  0  0  0  0  0  0
    5.5000   -0.8660    0.0000 C   0  0  0  0  0  0  0  0  0  0  0  0
    6.0000    0.0000    0.0000 C   0  0  0  0  0  0  0  0  0  0  0  0
    6.8660    0.5000    0.0000 O   0  0  0  0  0  0  0  0  0  0  0  0
    6.8660   -0.5000    0.0000 C   0  0  0  0  0  0  0  0  0  0  0  0
    6.8660   -1.5000    0.0000 C   0  0  0  0  0  0  0  0  0  0  0  0
    7.7321   -2.0000    0.0000 C   0  0  0  0  0  0  0  0  0  0  0  0
    8.5981   -1.5000    0.0000 C   0  0  0  0  0  0  0  0  0  0  0  0
    9.4641   -2.0000    0.0000 Cl  0  0  0  0  0  0  0  0  0  0  0  0
    8.5981   -0.5000    0.0000 C   0  0  0  0  0  0  0  0  0  0  0  0
    7.7321    0.0000    0.0000 C   0  0  0  0  0  0  0  0  0  0  0  0
    5.5000    0.8660    0.0000 C   0  0  0  0  0  0  0  0  0  0  0  0
    4.5000    0.8660    0.0000 C   0  0  0  0  0  0  0  0  0  0  0  0
    1.5000   -0.1340    0.0000 C   0  0  0  0  0  0  0  0  0  0  0  0
    0.6340   -0.6340    0.0000 C   0  0  0  0  0  0  0  0  0  0  0  0
    0.6340   -1.6340    0.0000 C   0  0  0  0  0  0  0  0  0  0  0  0
    1.5000   -2.1340    0.0000 C   0  0  0  0  0  0  0  0  0  0  0  0
    2.3660   -1.6340    0.0000 C   0  0  0  0  0  0  0  0  0  0  0  0
    2.3660   -0.6340    0.0000 C   0  0  0  0  0  0  0  0  0  0  0  0
    0.5000    0.8660    0.0000 C   0  0  0  0  0  0  0  0  0  0  0  0
   -0.0000    1.7321    0.0000 C   0  0  0  0  0  0  0  0  0  0  0  0
   -1.0000    1.7321    0.0000 C   0  0  0  0  0  0  0  0  0  0  0  0
   -1.5000    0.8660    0.0000 C   0  0  0  0  0  0  0  0  0  0  0  0
   -1.0000   -0.0000    0.0000 C   0  0  0  0  0  0  0  0  0  0  0  0
   -0.0000   -0.0000    0.0000 C   0  0  0  0  0  0  0  0  0  0  0  0
  1  2  1  0  0  0  0
  2  3  1  0  0  0  0
  2  4  1  0  0  0  0
  4  5  2  0  0  0  0
  4  6  1  0  0  0  0
  6  7  1  0  0  0  0
  6 23  1  0  0  0  0
  6 29  1  0  0  0  0
  7  8  1  0  0  0  0
  8  9  1  0  0  0  0
  9 22  1  0  0  0  0
  9 10  1  0  0  0  0
 10 11  1  0  0  0  0
 11 12  1  0  0  0  0
 12 13  1  0  0  0  0
 12 14  1  0  0  0  0
 12 21  1  0  0  0  0
 14 20  1  0  0  0  0
 14 15  2  0  0  0  0
 15 16  1  0  0  0  0
 16 17  2  0  0  0  0
 17 18  1  0  0  0  0
 17 19  1  0  0  0  0
 19 20  2  0  0  0  0
 21 22  1  0  0  0  0
 23 28  1  0  0  0  0
 23 24  2  0  0  0  0
 24 25  1  0  0  0  0
 25 26  2  0  0  0  0
 26 27  1  0  0  0  0
 27 28  2  0  0  0  0
 29 34  1  0  0  0  0
 29 30  2  0  0  0  0
 30 31  1  0  0  0  0
 31 32  2  0  0  0  0
 32 33  1  0  0  0  0
 33 34  2  0  0  0  0
M  END
$$$$

 OpenBabel10082008492D

 31 33  0  0  0  0  0  0  0  0999 V2000
    0.8660    3.5000    0.0000 O   0  0  0  0  0  0  0  0  0  0  0  0
    0.0000    3.0000    0.0000 C   0  0  0  0  0  0  0  0  0  0  0  0
   -0.8660    3.5000    0.0000 C   0  0  0  0  0  0  0  0  0  0  0  0
   -1.7321    3.0000    0.0000 C   0  0  0  0  0  0  0  0  0  0  0  0
   -1.7321    2.0000    0.0000 N   0  0  0  0  0  0  0  0  0  0  0  0
   -0.9230    1.4122    0.0000 C   0  0  0  0  0  0  0  0  0  0  0  0
   -1.2321    0.4612    0.0000 N   0  0  0  0  0  0  0  0  0  0  0  0
   -2.2321    0.4612    0.0000 C   0  0  0  0  0  0  0  0  0  0  0  0
   -2.8198   -0.3479    0.0000 C   0  0  0  0  0  0  0  0  0  0  0  0
   -2.4131   -1.2614    0.0000 C   0  0  0  0  0  0  0  0  0  0  0  0
   -3.0009   -2.0704    0.0000 C   0  0  0  0  0  0  0  0  0  0  0  0
   -2.5941   -2.9840    0.0000 C   0  0  0  0  0  0  0  0  0  0  0  0
   -1.7851   -3.5718    0.0000 F   0  0  0  0  0  0  0  0  0  0  0  0
   -1.6806   -2.5772    0.0000 F   0  0  0  0  0  0  0  0  0  0  0  0
   -3.1819   -3.7930    0.0000 F   0  0  0  0  0  0  0  0  0  0  0  0
   -3.9954   -1.9659    0.0000 C   0  0  0  0  0  0  0  0  0  0  0  0
   -4.4021   -1.0523    0.0000 C   0  0  0  0  0  0  0  0  0  0  0  0
   -5.3967   -0.9478    0.0000 C   0  0  0  0  0  0  0  0  0  0  0  0
   -6.3102   -1.3546    0.0000 F   0  0  0  0  0  0  0  0  0  0  0  0
   -5.5012   -1.9423    0.0000 F   0  0  0  0  0  0  0  0  0  0  0  0
   -5.8034   -0.0343    0.0000 F   0  0  0  0  0  0  0  0  0  0  0  0
   -3.8144   -0.2433    0.0000 C   0  0  0  0  0  0  0  0  0  0  0  0
   -2.5411    1.4122    0.0000 N   0  0  0  0  0  0  0  0  0  0  0  0
    0.0000    2.0000    0.0000 N   0  0  0  0  0  0  0  0  0  0  0  0
    0.8660    1.5000    0.0000 N   0  0  0  0  0  0  0  0  0  0  0  0
    0.8660    0.5000    0.0000 C   0  0  0  0  0  0  0  0  0  0  0  0
    1.7321   -0.0000    0.0000 C   0  0  0  0  0  0  0  0  0  0  0  0
    1.7321   -1.0000    0.0000 N   0  0  0  0  0  0  0  0  0  0  0  0
    0.8660   -1.5000    0.0000 C   0  0  0  0  0  0  0  0  0  0  0  0
   -0.0000   -1.0000    0.0000 C   0  0  0  0  0  0  0  0  0  0  0  0
    0.0000   -0.0000    0.0000 N   0  0  0  0  0  0  0  0  0  0  0  0
  1  2  2  0  0  0  0
  2  3  1  0  0  0  0
  2 24  1  0  0  0  0
  3  4  2  0  0  0  0
  4  5  1  0  0  0  0
  5 23  1  0  0  0  0
  5  6  1  0  0  0  0
  6  7  2  0  0  0  0
  7  8  1  0  0  0  0
  8  9  1  0  0  0  0
  8 23  2  0  0  0  0
  9 22  1  0  0  0  0
  9 10  2  0  0  0  0
 10 11  1  0  0  0  0
 11 12  1  0  0  0  0
 11 16  2  0  0  0  0
 12 13  1  0  0  0  0
 12 14  1  0  0  0  0
 12 15  1  0  0  0  0
 16 17  1  0  0  0  0
 17 18  1  0  0  0  0
 17 22  2  0  0  0  0
 18 19  1  0  0  0  0
 18 20  1  0  0  0  0
 18 21  1  0  0  0  0
 24 25  1  0  0  0  0
 25 26  1  0  0  0  0
 26 31  1  0  0  0  0
 26 27  2  0  0  0  0
 27 28  1  0  0  0  0
 28 29  2  0  0  0  0
 29 30  1  0  0  0  0
 30 31  2  0  0  0  0
M  END
$$$$

 OpenBabel10082008492D

 20 20  0  0  1  0  0  0  0  0999 V2000
   -2.5981   -1.5000    0.0000 C   0  0  0  0  0  0  0  0  0  0  0  0
   -1.7321   -2.0000    0.0000 C   0  0  0  0  0  0  0  0  0  0  0  0
   -1.7321   -3.0000    0.0000 O   0  0  0  0  0  0  0  0  0  0  0  0
   -0.8660   -1.5000    0.0000 N   0  0  0  0  0  0  0  0  0  0  0  0
   -0.0000   -2.0000    0.0000 C   0  0  0  0  0  0  0  0  0  0  0  0
    0.0000   -3.0000    0.0000 C   0  0  3  0  0  0  0  0  0  0  0  0
   -0.8660   -3.5000    0.0000 C   0  0  0  0  0  0  0  0  0  0  0  0
    0.8660   -3.5000    0.0000 C   0  0  0  0  0  0  0  0  0  0  0  0
    0.8660   -4.5000    0.0000 O   0  0  0  0  0  0  0  0  0  0  0  0
    1.7321   -3.0000    0.0000 O   0  0  0  0  0  0  0  0  0  0  0  0
   -0.8660   -0.5000    0.0000 C   0  0  0  0  0  0  0  0  0  0  0  0
   -1.7321   -0.0000    0.0000 C   0  0  0  0  0  0  0  0  0  0  0  0
   -2.5981   -0.5000    0.0000 I   0  0  0  0  0  0  0  0  0  0  0  0
   -1.7321    1.0000    0.0000 C   0  0  0  0  0  0  0  0  0  0  0  0
   -0.8660    1.5000    0.0000 C   0  0  0  0  0  0  0  0  0  0  0  0
   -0.8660    2.5000    0.0000 I   0  0  0  0  0  0  0  0  0  0  0  0
   -0.0000    1.0000    0.0000 C   0  0  0  0  0  0  0  0  0  0  0  0
    0.8660    1.5000    0.0000 N   0  0  0  0  0  0  0  0  0  0  0  0
    0.0000   -0.0000    0.0000 C   0  0  0  0  0  0  0  0  0  0  0  0
    0.8660   -0.5000    0.0000 I   0  0  0  0  0  0  0  0  0  0  0  0
  1  2  1  0  0  0  0
  2  3  2  0  0  0  0
  2  4  1  0  0  0  0
  4  5  1  0  0  0  0
  4 11  1  0  0  0  0
  5  6  1  0  0  0  0
  6  7  1  0  0  0  0
  6  8  1  0  0  0  0
  8  9  2  0  0  0  0
  8 10  1  0  0  0  0
 11 19  1  0  0  0  0
 11 12  2  0  0  0  0
 12 13  1  0  0  0  0
 12 14  1  0  0  0  0
 14 15  2  0  0  0  0
 15 16  1  0  0  0  0
 15 17  1  0  0  0  0
 17 18  1  0  0  0  0
 17 19  2  0  0  0  0
 19 20  1  0  0  0  0
M  END
$$$$

 OpenBabel10082008492D

 17 17  0  0  1  0  0  0  0  0999 V2000
    3.4641   -2.0000    0.0000 C   0  0  0  0  0  0  0  0  0  0  0  0
    2.5981   -1.5000    0.0000 C   0  0  0  0  0  0  0  0  0  0  0  0
    1.7321   -2.0000    0.0000 C   0  0  3  0  0  0  0  0  0  0  0  0
    0.8660   -1.5000    0.0000 C   0  0  0  0  0  0  0  0  0  0  0  0
    0.8660   -0.5000    0.0000 C   0  0  0  0  0  0  0  0  0  0  0  0
    1.7321   -0.0000    0.0000 C   0  0  0  0  0  0  0  0  0  0  0  0
    2.5981   -0.5000    0.0000 I   0  0  0  0  0  0  0  0  0  0  0  0
    1.7321    1.0000    0.0000 C   0  0  0  0  0  0  0  0  0  0  0  0
    0.8660    1.5000    0.0000 C   0  0  0  0  0  0  0  0  0  0  0  0
    0.8660    2.5000    0.0000 I   0  0  0  0  0  0  0  0  0  0  0  0
    0.0000    1.0000    0.0000 C   0  0  0  0  0  0  0  0  0  0  0  0
   -0.8660    1.5000    0.0000 N   0  0  0  0  0  0  0  0  0  0  0  0
   -0.0000   -0.0000    0.0000 C   0  0  0  0  0  0  0  0  0  0  0  0
   -0.8660   -0.5000    0.0000 I   0  0  0  0  0  0  0  0  0  0  0  0
    1.7321   -3.0000    0.0000 C   0  0  0  0  0  0  0  0  0  0  0  0
    0.8660   -3.5000    0.0000 O   0  0  0  0  0  0  0  0  0  0  0  0
    2.5981   -3.5000    0.0000 O   0  0  0  0  0  0  0  0  0  0  0  0
  1  2  1  0  0  0  0
  2  3  1  0  0  0  0
  3  4  1  0  0  0  0
  3 15  1  0  0  0  0
  4  5  1  0  0  0  0
  5 13  1  0  0  0  0
  5  6  2  0  0  0  0
  6  7  1  0  0  0  0
  6  8  1  0  0  0  0
  8  9  2  0  0  0  0
  9 10  1  0  0  0  0
  9 11  1  0  0  0  0
 11 12  1  0  0  0  0
 11 13  2  0  0  0  0
 13 14  1  0  0  0  0
 15 16  2  0  0  0  0
 15 17  1  0  0  0  0
M  END
$$$$

 OpenBabel10082008492D

 33 35  0  0  1  0  0  0  0  0999 V2000
   -2.5981   -5.5000    0.0000 C   0  0  0  0  0  0  0  0  0  0  0  0
   -1.7321   -6.0000    0.0000 C   0  0  0  0  0  0  0  0  0  0  0  0
   -0.8660   -5.5000    0.0000 C   0  0  0  0  0  0  0  0  0  0  0  0
   -0.8660   -4.5000    0.0000 C   0  0  0  0  0  0  0  0  0  0  0  0
   -0.0000   -4.0000    0.0000 N   0  0  0  0  0  0  0  0  0  0  0  0
    0.8660   -4.5000    0.0000 C   0  0  0  0  0  0  0  0  0  0  0  0
    1.7321   -4.0000    0.0000 C   0  0  0  0  0  0  0  0  0  0  0  0
    1.7321   -3.0000    0.0000 C   0  0  0  0  0  0  0  0  0  0  0  0
    2.5981   -2.5000    0.0000 C   0  0  0  0  0  0  0  0  0  0  0  0
   -0.0000   -3.0000    0.0000 C   0  0  0  0  0  0  0  0  0  0  0  0
    0.8660   -2.5000    0.0000 C   0  0  0  0  0  0  0  0  0  0  0  0
    0.8660   -1.5000    0.0000 C   0  0  3  0  0  0  0  0  0  0  0  0
    1.7321   -1.0000    0.0000 O   0  0  0  0  0  0  0  0  0  0  0  0
    0.0000   -1.0000    0.0000 C   0  0  0  0  0  0  0  0  0  0  0  0
   -0.8660   -1.5000    0.0000 C   0  0  0  0  0  0  0  0  0  0  0  0
   -1.7321   -1.0000    0.0000 C   0  0  0  0  0  0  0  0  0  0  0  0
   -2.5981   -1.5000    0.0000 C   0  0  0  0  0  0  0  0  0  0  0  0
   -2.5981   -2.5000    0.0000 Cl  0  0  0  0  0  0  0  0  0  0  0  0
   -3.4641   -1.0000    0.0000 C   0  0  0  0  0  0  0  0  0  0  0  0
   -3.4641    0.0000    0.0000 C   0  0  0  0  0  0  0  0  0  0  0  0
   -4.3301    0.5000    0.0000 Cl  0  0  0  0  0  0  0  0  0  0  0  0
   -2.5981    0.5000    0.0000 C   0  0  0  0  0  0  0  0  0  0  0  0
   -1.7321   -0.0000    0.0000 C   0  0  0  0  0  0  0  0  0  0  0  0
   -0.8660    0.5000    0.0000 C   0  0  0  0  0  0  0  0  0  0  0  0
   -0.8660    1.5000    0.0000 C   0  0  0  0  0  0  0  0  0  0  0  0
   -0.0000    2.0000    0.0000 C   0  0  0  0  0  0  0  0  0  0  0  0
   -0.0000    3.0000    0.0000 C   0  0  0  0  0  0  0  0  0  0  0  0
   -0.5000    3.8660    0.0000 F   0  0  0  0  0  0  0  0  0  0  0  0
   -1.0000    3.0000    0.0000 F   0  0  0  0  0  0  0  0  0  0  0  0
    0.8660    3.5000    0.0000 F   0  0  0  0  0  0  0  0  0  0  0  0
    0.8660    1.5000    0.0000 C   0  0  0  0  0  0  0  0  0  0  0  0
    0.8660    0.5000    0.0000 C   0  0  0  0  0  0  0  0  0  0  0  0
    0.0000   -0.0000    0.0000 C   0  0  0  0  0  0  0  0  0  0  0  0
  1  2  1  0  0  0  0
  2  3  1  0  0  0  0
  3  4  1  0  0  0  0
  4  5  1  0  0  0  0
  5  6  1  0  0  0  0
  5 10  1  0  0  0  0
  6  7  1  0  0  0  0
  7  8  1  0  0  0  0
  8  9  1  0  0  0  0
 10 11  1  0  0  0  0
 11 12  1  0  0  0  0
 12 13  1  0  0  0  0
 12 14  1  0  0  0  0
 14 33  1  0  0  0  0
 14 15  2  0  0  0  0
 15 16  1  0  0  0  0
 16 23  1  0  0  0  0
 16 17  2  0  0  0  0
 17 18  1  0  0  0  0
 17 19  1  0  0  0  0
 19 20  2  0  0  0  0
 20 21  1  0  0  0  0
 20 22  1  0  0  0  0
 22 23  2  0  0  0  0
 23 24  1  0  0  0  0
 24 33  1  0  0  0  0
 24 25  2  0  0  0  0
 25 26  1  0  0  0  0
 26 27  1  0  0  0  0
 26 31  2  0  0  0  0
 27 28  1  0  0  0  0
 27 29  1  0  0  0  0
 27 30  1  0  0  0  0
 31 32  1  0  0  0  0
 32 33  2  0  0  0  0
M  END
$$$$

 OpenBabel10082008492D

 18 19  0  0  0  0  0  0  0  0999 V2000
    4.4641   -1.0000    0.0000 C   0  0  0  0  0  0  0  0  0  0  0  0
    3.5981   -1.5000    0.0000 C   0  0  0  0  0  0  0  0  0  0  0  0
    3.5981   -2.5000    0.0000 C   0  0  0  0  0  0  0  0  0  0  0  0
    2.7321   -3.0000    0.0000 C   0  0  0  0  0  0  0  0  0  0  0  0
    1.8660   -2.5000    0.0000 N   0  0  0  0  0  0  0  0  0  0  0  0
    1.8660   -1.5000    0.0000 C   0  0  0  0  0  0  0  0  0  0  0  0
    1.0000   -1.0000    0.0000 N   0  0  0  0  0  0  0  0  0  0  0  0
    1.0000    0.0000    0.0000 S   0  0  0  0  0  0  0  0  0  0  0  0
    2.0000    0.0000    0.0000 O   0  0  0  0  0  0  0  0  0  0  0  0
    1.0000    1.0000    0.0000 O   0  0  0  0  0  0  0  0  0  0  0  0
    0.0000   -0.0000    0.0000 C   0  0  0  0  0  0  0  0  0  0  0  0
   -0.5000   -0.8660    0.0000 C   0  0  0  0  0  0  0  0  0  0  0  0
   -1.5000   -0.8660    0.0000 C   0  0  0  0  0  0  0  0  0  0  0  0
   -2.0000   -0.0000    0.0000 C   0  0  0  0  0  0  0  0  0  0  0  0
   -3.0000   -0.0000    0.0000 N   0  0  0  0  0  0  0  0  0  0  0  0
   -1.5000    0.8660    0.0000 C   0  0  0  0  0  0  0  0  0  0  0  0
   -0.5000    0.8660    0.0000 C   0  0  0  0  0  0  0  0  0  0  0  0
    2.7321   -1.0000    0.0000 N   0  0  0  0  0  0  0  0  0  0  0  0
  1  2  1  0  0  0  0
  2 18  1  0  0  0  0
  2  3  2  0  0  0  0
  3  4  1  0  0  0  0
  4  5  2  0  0  0  0
  5  6  1  0  0  0  0
  6  7  1  0  0  0  0
  6 18  2  0  0  0  0
  7  8  1  0  0  0  0
  8  9  2  0  0  0  0
  8 10  2  0  0  0  0
  8 11  1  0  0  0  0
 11 17  1  0  0  0  0
 11 12  2  0  0  0  0
 12 13  1  0  0  0  0
 13 14  2  0  0  0  0
 14 15  1  0  0  0  0
 14 16  1  0  0  0  0
 16 17  2  0  0  0  0
M  END
$$$$

 OpenBabel10082008492D

 20 21  0  0  1  0  0  0  0  0999 V2000
   -0.2321    2.5981    0.0000 C   0  0  0  0  0  0  0  0  0  0  0  0
   -1.2321    2.5981    0.0000 N   0  0  0  0  0  0  0  0  0  0  0  0
   -1.7321    3.4641    0.0000 C   0  0  0  0  0  0  0  0  0  0  0  0
   -1.7321    1.7321    0.0000 C   0  0  0  0  0  0  0  0  0  0  0  0
   -1.2321    0.8660    0.0000 C   0  0  0  0  0  0  0  0  0  0  0  0
   -1.7321    0.0000    0.0000 C   0  0  3  0  0  0  0  0  0  0  0  0
   -2.5981    0.5000    0.0000 O   0  0  0  0  0  0  0  0  0  0  0  0
   -2.2321   -0.8660    0.0000 C   0  0  0  0  0  0  0  0  0  0  0  0
   -1.7321   -1.7321    0.0000 C   0  0  0  0  0  0  0  0  0  0  0  0
   -2.2321   -2.5981    0.0000 C   0  0  0  0  0  0  0  0  0  0  0  0
   -3.2321   -2.5981    0.0000 C   0  0  0  0  0  0  0  0  0  0  0  0
   -3.7321   -1.7321    0.0000 C   0  0  0  0  0  0  0  0  0  0  0  0
   -3.2321   -0.8660    0.0000 C   0  0  0  0  0  0  0  0  0  0  0  0
   -0.8660   -0.5000    0.0000 C   0  0  0  0  0  0  0  0  0  0  0  0
   -0.8660   -1.5000    0.0000 C   0  0  0  0  0  0  0  0  0  0  0  0
   -0.0000   -2.0000    0.0000 C   0  0  0  0  0  0  0  0  0  0  0  0
    0.8660   -1.5000    0.0000 C   0  0  0  0  0  0  0  0  0  0  0  0
    0.8660   -0.5000    0.0000 C   0  0  0  0  0  0  0  0  0  0  0  0
    0.0000   -0.0000    0.0000 C   0  0  0  0  0  0  0  0  0  0  0  0
   -0.0000    1.0000    0.0000 Cl  0  0  0  0  0  0  0  0  0  0  0  0
  1  2  1  0  0  0  0
  2  3  1  0  0  0  0
  2  4  1  0  0  0  0
  4  5  1  0  0  0  0
  5  6  1  0  0  0  0
  6  7  1  0  0  0  0
  6  8  1  0  0  0  0
  6 14  1  0  0  0  0
  8 13  1  0  0  0  0
  8  9  2  0  0  0  0
  9 10  1  0  0  0  0
 10 11  2  0  0  0  0
 11 12  1  0  0  0  0
 12 13  2  0  0  0  0
 14 19  1  0  0  0  0
 14 15  2  0  0  0  0
 15 16  1  0  0  0  0
 16 17  2  0  0  0  0
 17 18  1  0  0  0  0
 18 19  2  0  0  0  0
 19 20  1  0  0  0  0
M  END
$$$$

 OpenBabel10082008492D

 22 24  0  0  0  0  0  0  0  0999 V2000
   -2.5981   -0.5000    0.0000 N   0  0  0  0  0  0  0  0  0  0  0  0
   -1.7321    0.0000    0.0000 C   0  0  0  0  0  0  0  0  0  0  0  0
   -0.8660    0.5000    0.0000 C   0  0  0  0  0  0  0  0  0  0  0  0
   -0.8660    1.5000    0.0000 C   0  0  0  0  0  0  0  0  0  0  0  0
   -0.0000    2.0000    0.0000 C   0  0  0  0  0  0  0  0  0  0  0  0
    0.8660    1.5000    0.0000 C   0  0  0  0  0  0  0  0  0  0  0  0
    1.7321    2.0000    0.0000 C   0  0  0  0  0  0  0  0  0  0  0  0
    2.5981    1.5000    0.0000 C   0  0  0  0  0  0  0  0  0  0  0  0
    3.4641    2.0000    0.0000 C   0  0  0  0  0  0  0  0  0  0  0  0
    4.3301    1.5000    0.0000 C   0  0  0  0  0  0  0  0  0  0  0  0
    4.3301    0.5000    0.0000 C   0  0  0  0  0  0  0  0  0  0  0  0
    5.1962   -0.0000    0.0000 C   0  0  0  0  0  0  0  0  0  0  0  0
    6.0622   -0.5000    0.0000 N   0  0  0  0  0  0  0  0  0  0  0  0
    3.4641   -0.0000    0.0000 C   0  0  0  0  0  0  0  0  0  0  0  0
    2.5981    0.5000    0.0000 C   0  0  0  0  0  0  0  0  0  0  0  0
    1.7321    3.0000    0.0000 N   0  0  0  0  0  0  0  0  0  0  0  0
    0.9230    3.5878    0.0000 C   0  0  0  0  0  0  0  0  0  0  0  0
    1.2321    4.5388    0.0000 N   0  0  0  0  0  0  0  0  0  0  0  0
    2.2321    4.5388    0.0000 C   0  0  0  0  0  0  0  0  0  0  0  0
    2.5411    3.5878    0.0000 N   0  0  0  0  0  0  0  0  0  0  0  0
    0.8660    0.5000    0.0000 C   0  0  0  0  0  0  0  0  0  0  0  0
    0.0000    0.0000    0.0000 C   0  0  0  0  0  0  0  0  0  0  0  0
  1  2  3  0  0  0  0
  2  3  1  0  0  0  0
  3 22  1  0  0  0  0
  3  4  2  0  0  0  0
  4  5  1  0  0  0  0
  5  6  2  0  0  0  0
  6  7  1  0  0  0  0
  6 21  1  0  0  0  0
  7  8  1  0  0  0  0
  7 16  1  0  0  0  0
  8 15  1  0  0  0  0
  8  9  2  0  0  0  0
  9 10  1  0  0  0  0
 10 11  2  0  0  0  0
 11 12  1  0  0  0  0
 11 14  1  0  0  0  0
 12 13  3  0  0  0  0
 14 15  2  0  0  0  0
 16 20  1  0  0  0  0
 16 17  1  0  0  0  0
 17 18  2  0  0  0  0
 18 19  1  0  0  0  0
 19 20  2  0  0  0  0
 21 22  2  0  0  0  0
M  END
$$$$

 OpenBabel10082008492D

 33 36  0  0  0  0  0  0  0  0999 V2000
   -3.7195    0.1151    0.0000 C   0  0  0  0  0  0  0  0  0  0  0  0
   -3.5116    1.0933    0.0000 C   0  0  0  0  0  0  0  0  0  0  0  0
   -4.1808    1.8364    0.0000 N   0  0  0  0  0  0  0  0  0  0  0  0
   -3.6808    2.7024    0.0000 N   0  0  0  0  0  0  0  0  0  0  0  0
   -4.0875    3.6160    0.0000 C   0  0  0  0  0  0  0  0  0  0  0  0
   -5.0820    3.7205    0.0000 C   0  0  0  0  0  0  0  0  0  0  0  0
   -5.4887    4.6341    0.0000 C   0  0  0  0  0  0  0  0  0  0  0  0
   -4.9010    5.4431    0.0000 C   0  0  0  0  0  0  0  0  0  0  0  0
   -5.3077    6.3566    0.0000 C   0  0  0  0  0  0  0  0  0  0  0  0
   -3.9064    5.3385    0.0000 C   0  0  0  0  0  0  0  0  0  0  0  0
   -3.3187    6.1476    0.0000 C   0  0  0  0  0  0  0  0  0  0  0  0
   -3.4997    4.4250    0.0000 C   0  0  0  0  0  0  0  0  0  0  0  0
   -2.7026    2.4945    0.0000 C   0  0  0  0  0  0  0  0  0  0  0  0
   -1.9595    3.1637    0.0000 O   0  0  0  0  0  0  0  0  0  0  0  0
   -2.5981    1.5000    0.0000 C   0  0  0  0  0  0  0  0  0  0  0  0
   -1.7321    1.0000    0.0000 N   0  0  0  0  0  0  0  0  0  0  0  0
   -0.8660    1.5000    0.0000 N   0  0  0  0  0  0  0  0  0  0  0  0
   -0.0000    1.0000    0.0000 C   0  0  0  0  0  0  0  0  0  0  0  0
    0.8660    1.5000    0.0000 C   0  0  0  0  0  0  0  0  0  0  0  0
    1.7321    1.0000    0.0000 C   0  0  0  0  0  0  0  0  0  0  0  0
    1.7321    0.0000    0.0000 C   0  0  0  0  0  0  0  0  0  0  0  0
    0.8660   -0.5000    0.0000 C   0  0  0  0  0  0  0  0  0  0  0  0
    0.8660   -1.5000    0.0000 C   0  0  0  0  0  0  0  0  0  0  0  0
    1.7321   -2.0000    0.0000 C   0  0  0  0  0  0  0  0  0  0  0  0
    1.7321   -3.0000    0.0000 C   0  0  0  0  0  0  0  0  0  0  0  0
    0.8660   -3.5000    0.0000 C   0  0  0  0  0  0  0  0  0  0  0  0
    0.0000   -3.0000    0.0000 C   0  0  0  0  0  0  0  0  0  0  0  0
   -0.8660   -3.5000    0.0000 C   0  0  0  0  0  0  0  0  0  0  0  0
   -1.7321   -3.0000    0.0000 O   0  0  0  0  0  0  0  0  0  0  0  0
   -0.8660   -4.5000    0.0000 O   0  0  0  0  0  0  0  0  0  0  0  0
    0.0000   -2.0000    0.0000 C   0  0  0  0  0  0  0  0  0  0  0  0
    0.0000    0.0000    0.0000 C   0  0  0  0  0  0  0  0  0  0  0  0
   -0.8660   -0.5000    0.0000 O   0  0  0  0  0  0  0  0  0  0  0  0
  1  2  1  0  0  0  0
  2 15  1  0  0  0  0
  2  3  2  0  0  0  0
  3  4  1  0  0  0  0
  4  5  1  0  0  0  0
  4 13  1  0  0  0  0
  5 12  1  0  0  0  0
  5  6  2  0  0  0  0
  6  7  1  0  0  0  0
  7  8  2  0  0  0  0
  8  9  1  0  0  0  0
  8 10  1  0  0  0  0
 10 11  1  0  0  0  0
 10 12  2  0  0  0  0
 13 14  2  0  0  0  0
 13 15  1  0  0  0  0
 15 16  2  0  0  0  0
 16 17  1  0  0  0  0
 17 18  1  0  0  0  0
 18 32  1  0  0  0  0
 18 19  2  0  0  0  0
 19 20  1  0  0  0  0
 20 21  2  0  0  0  0
 21 22  1  0  0  0  0
 22 23  1  0  0  0  0
 22 32  2  0  0  0  0
 23 31  1  0  0  0  0
 23 24  2  0  0  0  0
 24 25  1  0  0  0  0
 25 26  2  0  0  0  0
 26 27  1  0  0  0  0
 27 28  1  0  0  0  0
 27 31  2  0  0  0  0
 28 29  2  0  0  0  0
 28 30  1  0  0  0  0
 32 33  1  0  0  0  0
M  END
$$$$

 OpenBabel10082008492D

 26 29  0  0  1  0  0  0  0  0999 V2000
   -0.0000   -1.6743    0.0000 F   0  0  0  0  0  0  0  0  0  0  0  0
   -0.4833   -0.8372    0.0000 C   0  0  0  0  0  0  0  0  0  0  0  0
   -1.4500   -0.8372    0.0000 C   0  0  0  0  0  0  0  0  0  0  0  0
   -1.9333    0.0000    0.0000 C   0  0  0  0  0  0  0  0  0  0  0  0
   -1.4500    0.8372    0.0000 C   0  0  0  0  0  0  0  0  0  0  0  0
   -1.9333    1.6743    0.0000 C   0  0  2  0  0  0  0  0  0  0  0  0
   -0.9667    1.6743    0.0000 H   0  0  0  0  0  0  0  0  0  0  0  0
   -2.7705    1.1910    0.0000 C   0  0  0  0  0  0  0  0  0  0  0  0
   -3.6076    1.6743    0.0000 C   0  0  0  0  0  0  0  0  0  0  0  0
   -3.6076    2.6410    0.0000 N   0  0  0  0  0  0  0  0  0  0  0  0
   -2.7705    3.1243    0.0000 C   0  0  0  0  0  0  0  0  0  0  0  0
   -1.9333    2.6410    0.0000 C   0  0  1  0  0  0  0  0  0  0  0  0
   -0.3995    1.4640    0.0000 H   0  0  0  0  0  0  0  0  0  0  0  0
   -1.6831    3.5747    0.0000 C   0  0  0  0  0  0  0  0  0  0  0  0
   -0.7494    3.8249    0.0000 O   0  0  0  0  0  0  0  0  0  0  0  0
   -0.0659    3.1414    0.0000 C   0  0  0  0  0  0  0  0  0  0  0  0
   -0.3161    2.2076    0.0000 C   0  0  0  0  0  0  0  0  0  0  0  0
    0.3675    1.5241    0.0000 C   0  0  0  0  0  0  0  0  0  0  0  0
    1.3012    1.7743    0.0000 C   0  0  0  0  0  0  0  0  0  0  0  0
    1.5514    2.7080    0.0000 C   0  0  0  0  0  0  0  0  0  0  0  0
    0.8679    3.3916    0.0000 C   0  0  0  0  0  0  0  0  0  0  0  0
    2.5167    2.7586    0.0000 O   0  0  0  0  0  0  0  0  0  0  0  0
    2.8632    1.8562    0.0000 C   0  0  0  0  0  0  0  0  0  0  0  0
    2.1119    1.2478    0.0000 O   0  0  0  0  0  0  0  0  0  0  0  0
   -0.4833    0.8372    0.0000 C   0  0  0  0  0  0  0  0  0  0  0  0
    0.0000    0.0000    0.0000 C   0  0  0  0  0  0  0  0  0  0  0  0
  1  2  1  0  0  0  0
  2 26  1  0  0  0  0
  2  3  2  0  0  0  0
  3  4  1  0  0  0  0
  4  5  2  0  0  0  0
  5  6  1  0  0  0  0
  5 25  1  0  0  0  0
  6  7  1  1  0  0  0
  6 12  1  0  0  0  0
  6  8  1  0  0  0  0
  8  9  1  0  0  0  0
  9 10  1  0  0  0  0
 10 11  1  0  0  0  0
 11 12  1  0  0  0  0
 12 13  1  6  0  0  0
 12 14  1  0  0  0  0
 14 15  1  0  0  0  0
 15 16  1  0  0  0  0
 16 21  1  0  0  0  0
 16 17  2  0  0  0  0
 17 18  1  0  0  0  0
 18 19  2  0  0  0  0
 19 24  1  0  0  0  0
 19 20  1  0  0  0  0
 20 21  2  0  0  0  0
 20 22  1  0  0  0  0
 22 23  1  0  0  0  0
 23 24  1  0  0  0  0
 25 26  2  0  0  0  0
M  END
$$$$

 OpenBabel10082008492D

 29 32  0  0  1  0  0  0  0  0999 V2000
   -2.0156   -2.0598    0.0000 C   0  0  0  0  0  0  0  0  0  0  0  0
   -2.5156   -2.9258    0.0000 N   0  0  0  0  0  0  0  0  0  0  0  0
   -2.1089   -3.8393    0.0000 C   0  0  0  0  0  0  0  0  0  0  0  0
   -2.8520   -4.5085    0.0000 C   0  0  0  0  0  0  0  0  0  0  0  0
   -3.7181   -4.0085    0.0000 C   0  0  0  0  0  0  0  0  0  0  0  0
   -3.5102   -3.0303    0.0000 C   0  0  2  0  0  0  0  0  0  0  0  0
   -3.7181   -2.0522    0.0000 H   0  0  0  0  0  0  0  0  0  0  0  0
   -4.4612   -2.7213    0.0000 C   0  0  0  0  0  0  0  0  0  0  0  0
   -4.6691   -1.7431    0.0000 C   0  0  0  0  0  0  0  0  0  0  0  0
   -5.5827   -1.3364    0.0000 C   0  0  0  0  0  0  0  0  0  0  0  0
   -5.4781   -0.3419    0.0000 N   0  0  0  0  0  0  0  0  0  0  0  0
   -6.2213    0.3272    0.0000 H   0  0  0  0  0  0  0  0  0  0  0  0
   -4.5000   -0.1340    0.0000 C   0  0  0  0  0  0  0  0  0  0  0  0
   -4.0000    0.7321    0.0000 C   0  0  0  0  0  0  0  0  0  0  0  0
   -3.0000    0.7321    0.0000 C   0  0  0  0  0  0  0  0  0  0  0  0
   -2.5000   -0.1340    0.0000 C   0  0  0  0  0  0  0  0  0  0  0  0
   -1.5000   -0.1340    0.0000 C   0  0  0  0  0  0  0  0  0  0  0  0
   -1.0000   -1.0000    0.0000 C   0  0  0  0  0  0  0  0  0  0  0  0
    0.0000   -1.0000    0.0000 S   0  0  0  0  0  0  0  0  0  0  0  0
    0.0000   -2.0000    0.0000 O   0  0  0  0  0  0  0  0  0  0  0  0
    1.0000   -1.0000    0.0000 O   0  0  0  0  0  0  0  0  0  0  0  0
    0.0000   -0.0000    0.0000 C   0  0  0  0  0  0  0  0  0  0  0  0
   -0.8660    0.5000    0.0000 C   0  0  0  0  0  0  0  0  0  0  0  0
   -0.8660    1.5000    0.0000 C   0  0  0  0  0  0  0  0  0  0  0  0
   -0.0000    2.0000    0.0000 C   0  0  0  0  0  0  0  0  0  0  0  0
    0.8660    1.5000    0.0000 C   0  0  0  0  0  0  0  0  0  0  0  0
    0.8660    0.5000    0.0000 C   0  0  0  0  0  0  0  0  0  0  0  0
   -3.0000   -1.0000    0.0000 C   0  0  0  0  0  0  0  0  0  0  0  0
   -4.0000   -1.0000    0.0000 C   0  0  0  0  0  0  0  0  0  0  0  0
  1  2  1  0  0  0  0
  2  6  1  0  0  0  0
  2  3  1  0  0  0  0
  3  4  1  0  0  0  0
  4  5  1  0  0  0  0
  5  6  1  0  0  0  0
  6  7  1  1  0  0  0
  6  8  1  0  0  0  0
  8  9  1  0  0  0  0
  9 29  1  0  0  0  0
  9 10  2  0  0  0  0
 10 11  1  0  0  0  0
 11 12  1  0  0  0  0
 11 13  1  0  0  0  0
 13 29  1  0  0  0  0
 13 14  2  0  0  0  0
 14 15  1  0  0  0  0
 15 16  2  0  0  0  0
 16 17  1  0  0  0  0
 16 28  1  0  0  0  0
 17 18  1  0  0  0  0
 18 19  1  0  0  0  0
 19 20  2  0  0  0  0
 19 21  2  0  0  0  0
 19 22  1  0  0  0  0
 22 27  1  0  0  0  0
 22 23  2  0  0  0  0
 23 24  1  0  0  0  0
 24 25  2  0  0  0  0
 25 26  1  0  0  0  0
 26 27  2  0  0  0  0
 28 29  2  0  0  0  0
M  END
$$$$

 OpenBabel10082008492D

199190  0  0  0  0  0  0  0  0999 V2000
   30.0788   -0.5000    0.0000 C   0  0  0  0  0  0  0  0  0  0  0  0
   30.0788   -1.5000    0.0000 C   0  0  0  0  0  0  0  0  0  0  0  0
   29.2128   -2.0000    0.0000 C   0  0  0  0  0  0  0  0  0  0  0  0
   28.3468   -1.5000    0.0000 C   0  0  0  0  0  0  0  0  0  0  0  0
   28.3468   -0.5000    0.0000 C   0  0  0  0  0  0  0  0  0  0  0  0
   27.4808    0.0000    0.0000 C   0  0  0  0  0  0  0  0  0  0  0  0
   27.4808    1.0000    0.0000 C   0  0  0  0  0  0  0  0  0  0  0  0
   28.3468    1.5000    0.0000 C   0  0  0  0  0  0  0  0  0  0  0  0
   28.3468    2.5000    0.0000 C   0  0  0  0  0  0  0  0  0  0  0  0
   29.2128    3.0000    0.0000 C   0  0  0  0  0  0  0  0  0  0  0  0
   30.0788    2.5000    0.0000 C   0  0  0  0  0  0  0  0  0  0  0  0
   30.9449    3.0000    0.0000 C   0  0  0  0  0  0  0  0  0  0  0  0
   31.8109    2.5000    0.0000 C   0  0  0  0  0  0  0  0  0  0  0  0
   31.8109    1.5000    0.0000 C   0  0  0  0  0  0  0  0  0  0  0  0
   32.6769    1.0000    0.0000 C   0  0  0  0  0  0  0  0  0  0  0  0
   32.6769   -0.0000    0.0000 C   0  0  0  0  0  0  0  0  0  0  0  0
   31.8109   -0.5000    0.0000 C   0  0  0  0  0  0  0  0  0  0  0  0
   31.8109   -1.5000    0.0000 C   0  0  0  0  0  0  0  0  0  0  0  0
   30.9449   -2.0000    0.0000 C   0  0  0  0  0  0  0  0  0  0  0  0
   30.0788   -1.5000    0.0000 C   0  0  0  0  0  0  0  0  0  0  0  0
   29.2128   -2.0000    0.0000 C   0  0  0  0  0  0  0  0  0  0  0  0
   28.3468   -1.5000    0.0000 C   0  0  0  0  0  0  0  0  0  0  0  0
   28.3468   -0.5000    0.0000 O   0  0  0  0  0  0  0  0  0  0  0  0
   27.4808   -2.0000    0.0000 O   0  0  0  0  0  0  0  0  0  0  0  0
   16.9545  -26.0000    0.0000 C   0  0  0  0  0  0  0  0  0  0  0  0
   16.9545  -27.0000    0.0000 C   0  0  0  0  0  0  0  0  0  0  0  0
   16.0885  -27.5000    0.0000 C   0  0  0  0  0  0  0  0  0  0  0  0
   15.2224  -27.0000    0.0000 C   0  0  0  0  0  0  0  0  0  0  0  0
   15.2224  -26.0000    0.0000 C   0  0  0  0  0  0  0  0  0  0  0  0
   14.3564  -25.5000    0.0000 C   0  0  0  0  0  0  0  0  0  0  0  0
   14.3564  -24.5000    0.0000 C   0  0  0  0  0  0  0  0  0  0  0  0
   15.2224  -24.0000    0.0000 C   0  0  0  0  0  0  0  0  0  0  0  0
   15.2224  -23.0000    0.0000 C   0  0  0  0  0  0  0  0  0  0  0  0
   16.0885  -22.5000    0.0000 C   0  0  0  0  0  0  0  0  0  0  0  0
   16.9545  -23.0000    0.0000 C   0  0  0  0  0  0  0  0  0  0  0  0
   17.8205  -22.5000    0.0000 C   0  0  0  0  0  0  0  0  0  0  0  0
   18.6865  -23.0000    0.0000 C   0  0  0  0  0  0  0  0  0  0  0  0
   18.6865  -24.0000    0.0000 C   0  0  0  0  0  0  0  0  0  0  0  0
   19.5526  -24.5000    0.0000 C   0  0  0  0  0  0  0  0  0  0  0  0
   19.5526  -25.5000    0.0000 C   0  0  0  0  0  0  0  0  0  0  0  0
   18.6865  -26.0000    0.0000 C   0  0  0  0  0  0  0  0  0  0  0  0
   18.6865  -27.0000    0.0000 C   0  0  0  0  0  0  0  0  0  0  0  0
   17.8205  -27.5000    0.0000 C   0  0  0  0  0  0  0  0  0  0  0  0
   17.8205  -28.5000    0.0000 C   0  0  0  0  0  0  0  0  0  0  0  0
   18.6865  -29.0000    0.0000 O   0  0  0  0  0  0  0  0  0  0  0  0
   16.9545  -29.0000    0.0000 O   0  0  0  0  0  0  0  0  0  0  0  0
   10.8923  -15.0000    0.0000 C   0  0  0  0  0  0  0  0  0  0  0  0
   10.0263  -15.5000    0.0000 C   0  0  0  0  0  0  0  0  0  0  0  0
    9.1603  -15.0000    0.0000 C   0  0  0  0  0  0  0  0  0  0  0  0
    9.1603  -14.0000    0.0000 C   0  0  0  0  0  0  0  0  0  0  0  0
   10.0263  -13.5000    0.0000 C   0  0  0  0  0  0  0  0  0  0  0  0
   10.0263  -12.5000    0.0000 C   0  0  0  0  0  0  0  0  0  0  0  0
   10.8923  -12.0000    0.0000 C   0  0  0  0  0  0  0  0  0  0  0  0
   11.7583  -12.5000    0.0000 C   0  0  0  0  0  0  0  0  0  0  0  0
   12.6244  -12.0000    0.0000 C   0  0  0  0  0  0  0  0  0  0  0  0
   13.4904  -12.5000    0.0000 C   0  0  0  0  0  0  0  0  0  0  0  0
   13.4904  -13.5000    0.0000 C   0  0  0  0  0  0  0  0  0  0  0  0
   14.3564  -14.0000    0.0000 C   0  0  0  0  0  0  0  0  0  0  0  0
   14.3564  -15.0000    0.0000 C   0  0  0  0  0  0  0  0  0  0  0  0
   13.4904  -15.5000    0.0000 C   0  0  0  0  0  0  0  0  0  0  0  0
   13.4904  -16.5000    0.0000 C   0  0  0  0  0  0  0  0  0  0  0  0
   12.6244  -17.0000    0.0000 C   0  0  0  0  0  0  0  0  0  0  0  0
   11.7583  -16.5000    0.0000 C   0  0  0  0  0  0  0  0  0  0  0  0
   10.8923  -17.0000    0.0000 C   0  0  0  0  0  0  0  0  0  0  0  0
   10.0263  -16.5000    0.0000 C   0  0  0  0  0  0  0  0  0  0  0  0
    9.1603  -17.0000    0.0000 C   0  0  0  0  0  0  0  0  0  0  0  0
    8.2942  -16.5000    0.0000 C   0  0  0  0  0  0  0  0  0  0  0  0
    7.4282  -17.0000    0.0000 O   0  0  0  0  0  0  0  0  0  0  0  0
    8.2942  -15.5000    0.0000 O   0  0  0  0  0  0  0  0  0  0  0  0
   18.6865  -17.5000    0.0000 C   0  0  0  0  0  0  0  0  0  0  0  0
   18.6865  -18.5000    0.0000 C   0  0  0  0  0  0  0  0  0  0  0  0
   17.8205  -19.0000    0.0000 C   0  0  0  0  0  0  0  0  0  0  0  0
   16.9545  -18.5000    0.0000 C   0  0  0  0  0  0  0  0  0  0  0  0
   16.9545  -17.5000    0.0000 C   0  0  0  0  0  0  0  0  0  0  0  0
   16.0885  -17.0000    0.0000 C   0  0  0  0  0  0  0  0  0  0  0  0
   16.0885  -16.0000    0.0000 C   0  0  0  0  0  0  0  0  0  0  0  0
   16.9545  -15.5000    0.0000 C   0  0  0  0  0  0  0  0  0  0  0  0
   16.9545  -14.5000    0.0000 C   0  0  0  0  0  0  0  0  0  0  0  0
   17.8205  -14.0000    0.0000 C   0  0  0  0  0  0  0  0  0  0  0  0
   18.6865  -14.5000    0.0000 C   0  0  0  0  0  0  0  0  0  0  0  0
   19.5526  -14.0000    0.0000 C   0  0  0  0  0  0  0  0  0  0  0  0
   20.4186  -14.5000    0.0000 C   0  0  0  0  0  0  0  0  0  0  0  0
   20.4186  -15.5000    0.0000 C   0  0  0  0  0  0  0  0  0  0  0  0
   21.2846  -16.0000    0.0000 C   0  0  0  0  0  0  0  0  0  0  0  0
   21.2846  -17.0000    0.0000 C   0  0  0  0  0  0  0  0  0  0  0  0
   20.4186  -17.5000    0.0000 C   0  0  0  0  0  0  0  0  0  0  0  0
   20.4186  -18.5000    0.0000 C   0  0  0  0  0  0  0  0  0  0  0  0
   19.5526  -19.0000    0.0000 C   0  0  0  0  0  0  0  0  0  0  0  0
   19.5526  -20.0000    0.0000 C   0  0  0  0  0  0  0  0  0  0  0  0
   18.6865  -20.5000    0.0000 C   0  0  0  0  0  0  0  0  0  0  0  0
   18.6865  -21.5000    0.0000 C   0  0  0  0  0  0  0  0  0  0  0  0
   19.5526  -22.0000    0.0000 O   0  0  0  0  0  0  0  0  0  0  0  0
   17.8205  -22.0000    0.0000 O   0  0  0  0  0  0  0  0  0  0  0  0
   37.1410  -19.0000    0.0000 C   0  0  0  0  0  0  0  0  0  0  0  0
   37.1410  -18.0000    0.0000 C   0  0  0  0  0  0  0  0  0  0  0  0
   36.2750  -17.5000    0.0000 C   0  0  0  0  0  0  0  0  0  0  0  0
   35.4090  -18.0000    0.0000 C   0  0  0  0  0  0  0  0  0  0  0  0
   35.4090  -19.0000    0.0000 C   0  0  0  0  0  0  0  0  0  0  0  0
   34.5429  -19.5000    0.0000 C   0  0  0  0  0  0  0  0  0  0  0  0
   34.5429  -20.5000    0.0000 C   0  0  0  0  0  0  0  0  0  0  0  0
   35.4090  -21.0000    0.0000 C   0  0  0  0  0  0  0  0  0  0  0  0
   35.4090  -22.0000    0.0000 C   0  0  0  0  0  0  0  0  0  0  0  0
   36.2750  -22.5000    0.0000 C   0  0  0  0  0  0  0  0  0  0  0  0
   37.1410  -22.0000    0.0000 C   0  0  0  0  0  0  0  0  0  0  0  0
   38.0070  -22.5000    0.0000 C   0  0  0  0  0  0  0  0  0  0  0  0
   38.8731  -22.0000    0.0000 C   0  0  0  0  0  0  0  0  0  0  0  0
   38.8731  -21.0000    0.0000 C   0  0  0  0  0  0  0  0  0  0  0  0
   39.7391  -20.5000    0.0000 C   0  0  0  0  0  0  0  0  0  0  0  0
   39.7391  -19.5000    0.0000 C   0  0  0  0  0  0  0  0  0  0  0  0
   40.6051  -19.0000    0.0000 C   0  0  0  0  0  0  0  0  0  0  0  0
   40.6051  -18.0000    0.0000 C   0  0  0  0  0  0  0  0  0  0  0  0
   41.4711  -17.5000    0.0000 C   0  0  0  0  0  0  0  0  0  0  0  0
   41.4711  -16.5000    0.0000 C   0  0  0  0  0  0  0  0  0  0  0  0
   42.3372  -16.0000    0.0000 O   0  0  0  0  0  0  0  0  0  0  0  0
   40.6051  -16.0000    0.0000 O   0  0  0  0  0  0  0  0  0  0  0  0
   15.2224  -25.0000    0.0000 C   0  0  0  0  0  0  0  0  0  0  0  0
   15.2224  -24.0000    0.0000 C   0  0  0  0  0  0  0  0  0  0  0  0
   14.3564  -23.5000    0.0000 C   0  0  0  0  0  0  0  0  0  0  0  0
   13.4904  -24.0000    0.0000 C   0  0  0  0  0  0  0  0  0  0  0  0
   13.4904  -25.0000    0.0000 C   0  0  0  0  0  0  0  0  0  0  0  0
   12.6244  -25.5000    0.0000 C   0  0  0  0  0  0  0  0  0  0  0  0
   12.6244  -26.5000    0.0000 C   0  0  0  0  0  0  0  0  0  0  0  0
   13.4904  -27.0000    0.0000 C   0  0  0  0  0  0  0  0  0  0  0  0
   13.4904  -28.0000    0.0000 C   0  0  0  0  0  0  0  0  0  0  0  0
   14.3564  -28.5000    0.0000 C   0  0  0  0  0  0  0  0  0  0  0  0
   15.2224  -28.0000    0.0000 C   0  0  0  0  0  0  0  0  0  0  0  0
   16.0885  -28.5000    0.0000 C   0  0  0  0  0  0  0  0  0  0  0  0
   16.9545  -28.0000    0.0000 C   0  0  0  0  0  0  0  0  0  0  0  0
   17.8205  -28.5000    0.0000 C   0  0  0  0  0  0  0  0  0  0  0  0
   18.6865  -28.0000    0.0000 C   0  0  0  0  0  0  0  0  0  0  0  0
   19.5526  -28.5000    0.0000 C   0  0  0  0  0  0  0  0  0  0  0  0
   20.4186  -28.0000    0.0000 C   0  0  0  0  0  0  0  0  0  0  0  0
   21.2846  -28.5000    0.0000 C   0  0  0  0  0  0  0  0  0  0  0  0
   22.1506  -28.0000    0.0000 O   0  0  0  0  0  0  0  0  0  0  0  0
   21.2846  -29.5000    0.0000 O   0  0  0  0  0  0  0  0  0  0  0  0
   18.6865  -21.5000    0.0000 C   0  0  0  0  0  0  0  0  0  0  0  0
   18.6865  -20.5000    0.0000 C   0  0  0  0  0  0  0  0  0  0  0  0
   17.8205  -20.0000    0.0000 C   0  0  0  0  0  0  0  0  0  0  0  0
   16.9545  -20.5000    0.0000 C   0  0  0  0  0  0  0  0  0  0  0  0
   16.0885  -20.0000    0.0000 C   0  0  0  0  0  0  0  0  0  0  0  0
   15.2224  -20.5000    0.0000 C   0  0  0  0  0  0  0  0  0  0  0  0
   14.3564  -20.0000    0.0000 C   0  0  0  0  0  0  0  0  0  0  0  0
   14.3564  -19.0000    0.0000 C   0  0  0  0  0  0  0  0  0  0  0  0
   13.4904  -18.5000    0.0000 C   0  0  0  0  0  0  0  0  0  0  0  0
   13.4904  -17.5000    0.0000 C   0  0  0  0  0  0  0  0  0  0  0  0
   14.3564  -17.0000    0.0000 C   0  0  0  0  0  0  0  0  0  0  0  0
   14.3564  -16.0000    0.0000 C   0  0  0  0  0  0  0  0  0  0  0  0
   15.2224  -15.5000    0.0000 C   0  0  0  0  0  0  0  0  0  0  0  0
   16.0885  -16.0000    0.0000 C   0  0  0  0  0  0  0  0  0  0  0  0
   16.9545  -15.5000    0.0000 C   0  0  0  0  0  0  0  0  0  0  0  0
   17.8205  -16.0000    0.0000 C   0  0  0  0  0  0  0  0  0  0  0  0
   17.8205  -17.0000    0.0000 C   0  0  0  0  0  0  0  0  0  0  0  0
   18.6865  -17.5000    0.0000 C   0  0  0  0  0  0  0  0  0  0  0  0
   18.6865  -18.5000    0.0000 C   0  0  0  0  0  0  0  0  0  0  0  0
   17.8205  -19.0000    0.0000 C   0  0  0  0  0  0  0  0  0  0  0  0
   17.8205  -20.0000    0.0000 C   0  0  0  0  0  0  0  0  0  0  0  0
   16.9545  -20.5000    0.0000 C   0  0  0  0  0  0  0  0  0  0  0  0
   16.9545  -21.5000    0.0000 O   0  0  0  0  0  0  0  0  0  0  0  0
   16.0885  -20.0000    0.0000 O   0  0  0  0  0  0  0  0  0  0  0  0
   35.4090  -21.5000    0.0000 C   0  0  0  0  0  0  0  0  0  0  0  0
   35.4090  -20.5000    0.0000 C   0  0  0  0  0  0  0  0  0  0  0  0
   34.5429  -20.0000    0.0000 C   0  0  0  0  0  0  0  0  0  0  0  0
   33.6769  -20.5000    0.0000 C   0  0  0  0  0  0  0  0  0  0  0  0
   32.8109  -20.0000    0.0000 C   0  0  0  0  0  0  0  0  0  0  0  0
   31.9449  -20.5000    0.0000 C   0  0  0  0  0  0  0  0  0  0  0  0
   31.0788  -20.0000    0.0000 C   0  0  0  0  0  0  0  0  0  0  0  0
   31.0788  -19.0000    0.0000 C   0  0  0  0  0  0  0  0  0  0  0  0
   30.2128  -18.5000    0.0000 C   0  0  0  0  0  0  0  0  0  0  0  0
   30.2128  -17.5000    0.0000 C   0  0  0  0  0  0  0  0  0  0  0  0
   31.0788  -17.0000    0.0000 C   0  0  0  0  0  0  0  0  0  0  0  0
   31.0788  -16.0000    0.0000 C   0  0  0  0  0  0  0  0  0  0  0  0
   31.9449  -15.5000    0.0000 C   0  0  0  0  0  0  0  0  0  0  0  0
   32.8109  -16.0000    0.0000 C   0  0  0  0  0  0  0  0  0  0  0  0
   33.6769  -15.5000    0.0000 C   0  0  0  0  0  0  0  0  0  0  0  0
   34.5429  -16.0000    0.0000 C   0  0  0  0  0  0  0  0  0  0  0  0
   35.4090  -15.5000    0.0000 C   0  0  0  0  0  0  0  0  0  0  0  0
   36.2750  -16.0000    0.0000 C   0  0  0  0  0  0  0  0  0  0  0  0
   37.1410  -15.5000    0.0000 O   0  0  0  0  0  0  0  0  0  0  0  0
   36.2750  -17.0000    0.0000 O   0  0  0  0  0  0  0  0  0  0  0  0
   35.4090  -23.5000    0.0000 C   0  0  0  0  0  0  0  0  0  0  0  0
   35.4090  -24.5000    0.0000 C   0  0  0  0  0  0  0  0  0  0  0  0
   34.5429  -25.0000    0.0000 C   0  0  0  0  0  0  0  0  0  0  0  0
   33.6769  -24.5000    0.0000 C   0  0  0  0  0  0  0  0  0  0  0  0
   32.8109  -25.0000    0.0000 C   0  0  0  0  0  0  0  0  0  0  0  0
   31.9449  -24.5000    0.0000 C   0  0  0  0  0  0  0  0  0  0  0  0
   31.0788  -25.0000    0.0000 C   0  0  0  0  0  0  0  0  0  0  0  0
   31.0788  -26.0000    0.0000 C   0  0  0  0  0  0  0  0  0  0  0  0
   30.2128  -26.5000    0.0000 C   0  0  0  0  0  0  0  0  0  0  0  0
   30.2128  -27.5000    0.0000 C   0  0  0  0  0  0  0  0  0  0  0  0
   31.0788  -28.0000    0.0000 C   0  0  0  0  0  0  0  0  0  0  0  0
   31.0788  -29.0000    0.0000 C   0  0  0  0  0  0  0  0  0  0  0  0
   31.9449  -29.5000    0.0000 C   0  0  0  0  0  0  0  0  0  0  0  0
   31.9449  -30.5000    0.0000 C   0  0  0  0  0  0  0  0  0  0  0  0
   32.8109  -31.0000    0.0000 C   0  0  0  0  0  0  0  0  0  0  0  0
   32.8109  -32.0000    0.0000 C   0  0  0  0  0  0  0  0  0  0  0  0
   33.6769  -32.5000    0.0000 C   0  0  0  0  0  0  0  0  0  0  0  0
   33.6769  -33.5000    0.0000 C   0  0  0  0  0  0  0  0  0  0  0  0
   32.8109  -34.0000    0.0000 O   0  0  0  0  0  0  0  0  0  0  0  0
   34.5429  -34.0000    0.0000 O   0  0  0  0  0  0  0  0  0  0  0  0
  1  2  1  0  0  0  0
  2  3  1  0  0  0  0
  3  4  2  0  0  0  0
  4  5  1  0  0  0  0
  5  6  1  0  0  0  0
  6  7  2  0  0  0  0
  7  8  1  0  0  0  0
  8  9  1  0  0  0  0
  9 10  2  0  0  0  0
 10 11  1  0  0  0  0
 11 12  1  0  0  0  0
 12 13  2  0  0  0  0
 13 14  1  0  0  0  0
 14 15  1  0  0  0  0
 15 16  2  0  0  0  0
 16 17  1  0  0  0  0
 17 18  1  0  0  0  0
 18 19  2  0  0  0  0
 19 20  1  0  0  0  0
 20 21  1  0  0  0  0
 21 22  1  0  0  0  0
 22 23  2  0  0  0  0
 22 24  1  0  0  0  0
 25 26  1  0  0  0  0
 26 27  1  0  0  0  0
 27 28  2  0  0  0  0
 28 29  1  0  0  0  0
 29 30  1  0  0  0  0
 30 31  2  0  0  0  0
 31 32  1  0  0  0  0
 32 33  1  0  0  0  0
 33 34  2  0  0  0  0
 34 35  1  0  0  0  0
 35 36  1  0  0  0  0
 36 37  2  0  0  0  0
 37 38  1  0  0  0  0
 38 39  1  0  0  0  0
 39 40  2  0  0  0  0
 40 41  1  0  0  0  0
 41 42  1  0  0  0  0
 42 43  1  0  0  0  0
 43 44  1  0  0  0  0
 44 45  2  0  0  0  0
 44 46  1  0  0  0  0
 47 48  1  0  0  0  0
 48 49  1  0  0  0  0
 49 50  2  0  0  0  0
 50 51  1  0  0  0  0
 51 52  1  0  0  0  0
 52 53  2  0  0  0  0
 53 54  1  0  0  0  0
 54 55  1  0  0  0  0
 55 56  2  0  0  0  0
 56 57  1  0  0  0  0
 57 58  1  0  0  0  0
 58 59  2  0  0  0  0
 59 60  1  0  0  0  0
 60 61  1  0  0  0  0
 61 62  2  0  0  0  0
 62 63  1  0  0  0  0
 63 64  1  0  0  0  0
 64 65  1  0  0  0  0
 65 66  1  0  0  0  0
 66 67  1  0  0  0  0
 67 68  2  0  0  0  0
 67 69  1  0  0  0  0
 70 71  1  0  0  0  0
 71 72  1  0  0  0  0
 72 73  2  0  0  0  0
 73 74  1  0  0  0  0
 74 75  1  0  0  0  0
 75 76  2  0  0  0  0
 76 77  1  0  0  0  0
 77 78  1  0  0  0  0
 78 79  2  0  0  0  0
 79 80  1  0  0  0  0
 80 81  1  0  0  0  0
 81 82  2  0  0  0  0
 82 83  1  0  0  0  0
 83 84  1  0  0  0  0
 84 85  2  0  0  0  0
 85 86  1  0  0  0  0
 86 87  1  0  0  0  0
 87 88  1  0  0  0  0
 88 89  1  0  0  0  0
 89 90  1  0  0  0  0
 90 91  1  0  0  0  0
 91 92  2  0  0  0  0
 91 93  1  0  0  0  0
 94 95  1  0  0  0  0
 95 96  1  0  0  0  0
 96 97  2  0  0  0  0
 97 98  1  0  0  0  0
 98 99  1  0  0  0  0
 99100  2  0  0  0  0
100101  1  0  0  0  0
101102  1  0  0  0  0
102103  2  0  0  0  0
103104  1  0  0  0  0
104105  1  0  0  0  0
105106  2  0  0  0  0
106107  1  0  0  0  0
107108  1  0  0  0  0
108109  1  0  0  0  0
109110  1  0  0  0  0
110111  1  0  0  0  0
111112  1  0  0  0  0
112113  1  0  0  0  0
113114  2  0  0  0  0
113115  1  0  0  0  0
116117  1  0  0  0  0
117118  1  0  0  0  0
118119  2  0  0  0  0
119120  1  0  0  0  0
120121  1  0  0  0  0
121122  2  0  0  0  0
122123  1  0  0  0  0
123124  1  0  0  0  0
124125  2  0  0  0  0
125126  1  0  0  0  0
126127  1  0  0  0  0
127128  1  0  0  0  0
128129  1  0  0  0  0
129130  1  0  0  0  0
130131  1  0  0  0  0
131132  1  0  0  0  0
132133  1  0  0  0  0
133134  2  0  0  0  0
133135  1  0  0  0  0
136137  1  0  0  0  0
137138  1  0  0  0  0
138139  1  0  0  0  0
139140  1  0  0  0  0
140141  1  0  0  0  0
141142  2  0  0  0  0
142143  1  0  0  0  0
143144  1  0  0  0  0
144145  2  0  0  0  0
145146  1  0  0  0  0
146147  1  0  0  0  0
147148  2  0  0  0  0
148149  1  0  0  0  0
149150  1  0  0  0  0
150151  2  0  0  0  0
151152  1  0  0  0  0
152153  1  0  0  0  0
153154  2  0  0  0  0
154155  1  0  0  0  0
155156  1  0  0  0  0
156157  1  0  0  0  0
157158  2  0  0  0  0
157159  1  0  0  0  0
160161  1  0  0  0  0
161162  1  0  0  0  0
162163  1  0  0  0  0
163164  1  0  0  0  0
164165  1  0  0  0  0
165166  2  0  0  0  0
166167  1  0  0  0  0
167168  1  0  0  0  0
168169  2  0  0  0  0
169170  1  0  0  0  0
170171  1  0  0  0  0
171172  2  0  0  0  0
172173  1  0  0  0  0
173174  1  0  0  0  0
174175  1  0  0  0  0
175176  1  0  0  0  0
176177  1  0  0  0  0
177178  2  0  0  0  0
177179  1  0  0  0  0
180181  1  0  0  0  0
181182  1  0  0  0  0
182183  1  0  0  0  0
183184  1  0  0  0  0
184185  1  0  0  0  0
185186  2  0  0  0  0
186187  1  0  0  0  0
187188  1  0  0  0  0
188189  2  0  0  0  0
189190  1  0  0  0  0
190191  1  0  0  0  0
191192  1  0  0  0  0
192193  1  0  0  0  0
193194  1  0  0  0  0
194195  1  0  0  0  0
195196  1  0  0  0  0
196197  1  0  0  0  0
197198  2  0  0  0  0
197199  1  0  0  0  0
M  END
$$$$

 OpenBabel10082008492D

 28 29  0  0  1  0  0  0  0  0999 V2000
   -4.0508   -0.4677    0.0000 C   0  0  0  0  0  0  0  0  0  0  0  0
   -3.2406   -0.9355    0.0000 O   0  0  0  0  0  0  0  0  0  0  0  0
   -2.4305   -0.4677    0.0000 C   0  0  0  0  0  0  0  0  0  0  0  0
   -1.6203   -0.9355    0.0000 O   0  0  0  0  0  0  0  0  0  0  0  0
   -2.4305    1.4032    0.0000 C   0  0  0  0  0  0  0  0  0  0  0  0
   -3.2406    1.8710    0.0000 C   0  0  0  0  0  0  0  0  0  0  0  0
   -4.0508    1.4032    0.0000 C   0  0  0  0  0  0  0  0  0  0  0  0
   -3.2406    2.8065    0.0000 N   0  0  0  0  0  0  0  0  0  0  0  0
   -2.4305    3.2742    0.0000 C   0  0  0  0  0  0  0  0  0  0  0  0
   -2.4305    4.2097    0.0000 C   0  0  0  0  0  0  0  0  0  0  0  0
   -1.6203    2.8065    0.0000 C   0  0  0  0  0  0  0  0  0  0  0  0
   -0.8102    3.2742    0.0000 C   0  0  0  0  0  0  0  0  0  0  0  0
   -0.0000    2.8065    0.0000 O   0  0  0  0  0  0  0  0  0  0  0  0
   -0.8102    4.2097    0.0000 O   0  0  0  0  0  0  0  0  0  0  0  0
   -0.0000    4.6774    0.0000 C   0  0  0  0  0  0  0  0  0  0  0  0
   -0.0000    5.6129    0.0000 C   0  0  0  0  0  0  0  0  0  0  0  0
    0.8102    6.0806    0.0000 C   0  0  0  0  0  0  0  0  0  0  0  0
   -0.8102    6.0806    0.0000 C   0  0  0  0  0  0  0  0  0  0  0  0
   -1.6203    1.8710    0.0000 C   0  0  3  0  0  0  0  0  0  0  0  0
   -0.0000    0.9355    0.0000 C   0  0  0  0  0  0  0  0  0  0  0  0
    0.8102    1.4032    0.0000 C   0  0  0  0  0  0  0  0  0  0  0  0
    1.6203    0.9355    0.0000 C   0  0  0  0  0  0  0  0  0  0  0  0
    1.6203    0.0000    0.0000 C   0  0  0  0  0  0  0  0  0  0  0  0
    0.8102   -0.4677    0.0000 C   0  0  0  0  0  0  0  0  0  0  0  0
    0.0000   -0.0000    0.0000 C   0  0  0  0  0  0  0  0  0  0  0  0
   -0.8102   -0.4677    0.0000 N   0  3  0  0  0  0  0  0  0  0  0  0
   -1.6203   -0.0000    0.0000 O   0  0  0  0  0  0  0  0  0  0  0  0
   -0.8102   -1.4032    0.0000 O   0  5  0  0  0  0  0  0  0  0  0  0
  1  2  1  0  0  0  0
  2  3  1  0  0  0  0
  3  4  2  0  0  0  0
  3  5  1  0  0  0  0
  5 19  1  0  0  0  0
  5  6  2  0  0  0  0
  6  7  1  0  0  0  0
  6  8  1  0  0  0  0
  8  9  1  0  0  0  0
  9 10  1  0  0  0  0
  9 11  2  0  0  0  0
 11 12  1  0  0  0  0
 11 19  1  0  0  0  0
 12 13  2  0  0  0  0
 12 14  1  0  0  0  0
 14 15  1  0  0  0  0
 15 16  1  0  0  0  0
 16 17  1  0  0  0  0
 16 18  1  0  0  0  0
 19 20  1  0  0  0  0
 20 25  1  0  0  0  0
 20 21  2  0  0  0  0
 21 22  1  0  0  0  0
 22 23  2  0  0  0  0
 23 24  1  0  0  0  0
 24 25  2  0  0  0  0
 25 26  1  0  0  0  0
 26 27  2  0  0  0  0
 26 28  1  0  0  0  0
M  CHG  2  26   1  28  -1
M  END
$$$$

 OpenBabel10082008492D

 14 14  0  0  1  0  0  0  0  0999 V2000
    1.7321   -2.0000    0.0000 C   0  0  0  0  0  0  0  0  0  0  0  0
    0.8660   -1.5000    0.0000 N   0  0  0  0  0  0  0  0  0  0  0  0
   -0.0000   -2.0000    0.0000 C   0  0  1  0  0  0  0  0  0  0  0  0
   -0.5000   -2.8660    0.0000 H   0  0  0  0  0  0  0  0  0  0  0  0
    0.5000   -2.8660    0.0000 C   0  0  0  0  0  0  0  0  0  0  0  0
   -0.8660   -1.5000    0.0000 C   0  0  1  0  0  0  0  0  0  0  0  0
   -1.8660   -1.5000    0.0000 H   0  0  0  0  0  0  0  0  0  0  0  0
   -1.3660   -2.3660    0.0000 O   0  0  0  0  0  0  0  0  0  0  0  0
   -0.8660   -0.5000    0.0000 C   0  0  0  0  0  0  0  0  0  0  0  0
   -1.7321   -0.0000    0.0000 C   0  0  0  0  0  0  0  0  0  0  0  0
   -1.7321    1.0000    0.0000 C   0  0  0  0  0  0  0  0  0  0  0  0
   -0.8660    1.5000    0.0000 C   0  0  0  0  0  0  0  0  0  0  0  0
    0.0000    1.0000    0.0000 C   0  0  0  0  0  0  0  0  0  0  0  0
   -0.0000   -0.0000    0.0000 C   0  0  0  0  0  0  0  0  0  0  0  0
  1  2  1  0  0  0  0
  2  3  1  0  0  0  0
  3  4  1  6  0  0  0
  3  5  1  0  0  0  0
  3  6  1  0  0  0  0
  6  7  1  6  0  0  0
  6  8  1  0  0  0  0
  6  9  1  0  0  0  0
  9 14  1  0  0  0  0
  9 10  2  0  0  0  0
 10 11  1  0  0  0  0
 11 12  2  0  0  0  0
 12 13  1  0  0  0  0
 13 14  2  0  0  0  0
M  END
$$$$

 OpenBabel10082008492D

 25 27  0  0  0  0  0  0  0  0999 V2000
    1.0934    0.6637    0.0000 C   0  0  0  0  0  0  0  0  0  0  0  0
    1.8366   -0.0055    0.0000 C   0  0  0  0  0  0  0  0  0  0  0  0
    2.8147    0.2024    0.0000 C   0  0  0  0  0  0  0  0  0  0  0  0
    3.2215    1.1160    0.0000 C   0  0  0  0  0  0  0  0  0  0  0  0
    4.2160    1.2205    0.0000 C   0  0  0  0  0  0  0  0  0  0  0  0
    4.8038    0.4115    0.0000 O   0  0  0  0  0  0  0  0  0  0  0  0
    4.6227    2.1341    0.0000 O   0  0  0  0  0  0  0  0  0  0  0  0
    3.3147   -0.6636    0.0000 C   0  0  0  0  0  0  0  0  0  0  0  0
    4.2929   -0.8715    0.0000 C   0  0  0  0  0  0  0  0  0  0  0  0
    4.6019   -1.8226    0.0000 C   0  0  0  0  0  0  0  0  0  0  0  0
    5.5800   -2.0305    0.0000 F   0  0  0  0  0  0  0  0  0  0  0  0
    3.9328   -2.5657    0.0000 C   0  0  0  0  0  0  0  0  0  0  0  0
    2.9546   -2.3578    0.0000 C   0  0  0  0  0  0  0  0  0  0  0  0
    2.6456   -1.4067    0.0000 C   0  0  0  0  0  0  0  0  0  0  0  0
    1.7321   -1.0000    0.0000 C   0  0  0  0  0  0  0  0  0  0  0  0
    0.8660   -1.5000    0.0000 C   0  0  0  0  0  0  0  0  0  0  0  0
    0.8660   -2.5000    0.0000 C   0  0  0  0  0  0  0  0  0  0  0  0
    0.0000   -3.0000    0.0000 C   0  0  0  0  0  0  0  0  0  0  0  0
    0.0000   -4.0000    0.0000 C   0  0  0  0  0  0  0  0  0  0  0  0
    0.8660   -4.5000    0.0000 C   0  0  0  0  0  0  0  0  0  0  0  0
    0.8660   -5.5000    0.0000 S   0  3  3  0  0  0  0  0  0  0  0  0
    1.7321   -6.0000    0.0000 C   0  0  0  0  0  0  0  0  0  0  0  0
   -0.0000   -6.0000    0.0000 O   0  5  0  0  0  0  0  0  0  0  0  0
    1.7321   -4.0000    0.0000 C   0  0  0  0  0  0  0  0  0  0  0  0
    1.7321   -3.0000    0.0000 C   0  0  0  0  0  0  0  0  0  0  0  0
  1  2  1  0  0  0  0
  2 15  1  0  0  0  0
  2  3  2  0  0  0  0
  3  4  1  0  0  0  0
  3  8  1  0  0  0  0
  4  5  1  0  0  0  0
  5  6  2  0  0  0  0
  5  7  1  0  0  0  0
  8 14  1  0  0  0  0
  8  9  2  0  0  0  0
  9 10  1  0  0  0  0
 10 11  1  0  0  0  0
 10 12  2  0  0  0  0
 12 13  1  0  0  0  0
 13 14  2  0  0  0  0
 14 15  1  0  0  0  0
 15 16  2  0  0  0  0
 16 17  1  0  0  0  0
 17 25  1  0  0  0  0
 17 18  2  0  0  0  0
 18 19  1  0  0  0  0
 19 20  2  0  0  0  0
 20 21  1  0  0  0  0
 20 24  1  0  0  0  0
 21 22  1  0  0  0  0
 21 23  1  0  0  0  0
 24 25  2  0  0  0  0
M  CHG  2  21   1  23  -1
M  END
$$$$

 OpenBabel10082008492D

 22 23  0  0  0  0  0  0  0  0999 V2000
   -0.8660   -3.5000    0.0000 C   0  0  0  0  0  0  0  0  0  0  0  0
   -0.8660   -2.5000    0.0000 C   0  0  0  0  0  0  0  0  0  0  0  0
    0.1340   -2.5000    0.0000 C   0  0  0  0  0  0  0  0  0  0  0  0
   -0.8660   -1.5000    0.0000 O   0  0  0  0  0  0  0  0  0  0  0  0
    0.0000   -1.0000    0.0000 C   0  0  0  0  0  0  0  0  0  0  0  0
    0.8660   -1.5000    0.0000 C   0  0  0  0  0  0  0  0  0  0  0  0
    1.7321   -1.0000    0.0000 C   0  0  0  0  0  0  0  0  0  0  0  0
    1.7321    0.0000    0.0000 C   0  0  0  0  0  0  0  0  0  0  0  0
    2.5981    0.5000    0.0000 C   0  0  0  0  0  0  0  0  0  0  0  0
    2.5981    1.5000    0.0000 O   0  0  0  0  0  0  0  0  0  0  0  0
    3.4641    0.0000    0.0000 C   0  0  0  0  0  0  0  0  0  0  0  0
    3.4641   -1.0000    0.0000 C   0  0  0  0  0  0  0  0  0  0  0  0
    4.3301   -1.5000    0.0000 C   0  0  0  0  0  0  0  0  0  0  0  0
    5.1962   -1.0000    0.0000 C   0  0  0  0  0  0  0  0  0  0  0  0
    6.0622   -1.5000    0.0000 Cl  0  0  0  0  0  0  0  0  0  0  0  0
    5.1962    0.0000    0.0000 C   0  0  0  0  0  0  0  0  0  0  0  0
    4.3301    0.5000    0.0000 C   0  0  0  0  0  0  0  0  0  0  0  0
    0.8660    0.5000    0.0000 C   0  0  0  0  0  0  0  0  0  0  0  0
   -0.0000   -0.0000    0.0000 C   0  0  0  0  0  0  0  0  0  0  0  0
   -1.8660   -2.5000    0.0000 C   0  0  0  0  0  0  0  0  0  0  0  0
   -2.3660   -1.6340    0.0000 O   0  0  0  0  0  0  0  0  0  0  0  0
   -2.3660   -3.3660    0.0000 O   0  0  0  0  0  0  0  0  0  0  0  0
  1  2  1  0  0  0  0
  2  3  1  0  0  0  0
  2  4  1  0  0  0  0
  2 20  1  0  0  0  0
  4  5  1  0  0  0  0
  5 19  1  0  0  0  0
  5  6  2  0  0  0  0
  6  7  1  0  0  0  0
  7  8  2  0  0  0  0
  8  9  1  0  0  0  0
  8 18  1  0  0  0  0
  9 10  2  0  0  0  0
  9 11  1  0  0  0  0
 11 17  1  0  0  0  0
 11 12  2  0  0  0  0
 12 13  1  0  0  0  0
 13 14  2  0  0  0  0
 14 15  1  0  0  0  0
 14 16  1  0  0  0  0
 16 17  2  0  0  0  0
 18 19  2  0  0  0  0
 20 21  2  0  0  0  0
 20 22  1  0  0  0  0
M  END
$$$$

 OpenBabel10082008492D

 42 47  0  0  1  0  0  0  0  0999 V2000
    5.6984   -1.4100    0.0000 C   0  0  0  0  0  0  0  0  0  0  0  0
    4.8844   -0.9400    0.0000 O   0  0  0  0  0  0  0  0  0  0  0  0
    4.0703   -1.4100    0.0000 C   0  0  0  0  0  0  0  0  0  0  0  0
    4.0703   -2.3500    0.0000 O   0  0  0  0  0  0  0  0  0  0  0  0
    3.2563   -0.9400    0.0000 O   0  0  0  0  0  0  0  0  0  0  0  0
    2.4422   -1.4100    0.0000 C   0  0  0  0  0  0  0  0  0  0  0  0
    1.6281   -0.9400    0.0000 O   0  0  0  0  0  0  0  0  0  0  0  0
    0.8141   -1.4100    0.0000 C   0  0  0  0  0  0  0  0  0  0  0  0
   -0.0000   -0.9400    0.0000 C   0  0  0  0  0  0  0  0  0  0  0  0
   -0.8141   -1.4100    0.0000 N   0  0  0  0  0  0  0  0  0  0  0  0
   -0.8141   -2.3500    0.0000 C   0  0  0  0  0  0  0  0  0  0  0  0
   -0.0000   -2.8200    0.0000 C   0  0  0  0  0  0  0  0  0  0  0  0
    0.8141   -2.3500    0.0000 C   0  0  0  0  0  0  0  0  0  0  0  0
    1.6281   -2.8200    0.0000 O   0  0  0  0  0  0  0  0  0  0  0  0
   -1.6281   -0.9400    0.0000 N   0  0  3  0  0  0  0  0  0  0  0  0
   -4.8844   -2.8200    0.0000 C   0  0  2  0  0  0  0  0  0  0  0  0
   -5.7159   -2.3816    0.0000 H   0  0  0  0  0  0  0  0  0  0  0  0
   -5.8080   -2.9948    0.0000 C   0  0  0  0  0  0  0  0  0  0  0  0
   -6.3081   -2.1988    0.0000 C   0  0  0  0  0  0  0  0  0  0  0  0
   -7.2474   -2.2340    0.0000 C   0  0  0  0  0  0  0  0  0  0  0  0
   -7.6867   -3.0651    0.0000 C   0  0  0  0  0  0  0  0  0  0  0  0
   -7.1866   -3.8610    0.0000 C   0  0  0  0  0  0  0  0  0  0  0  0
   -6.2472   -3.8258    0.0000 C   0  0  0  0  0  0  0  0  0  0  0  0
   -5.8713   -4.6874    0.0000 S   0  0  0  0  0  0  0  0  0  0  0  0
   -4.9634   -4.9307    0.0000 C   0  0  0  0  0  0  0  0  0  0  0  0
   -4.2070   -4.3725    0.0000 C   0  0  0  0  0  0  0  0  0  0  0  0
   -4.1719   -3.4332    0.0000 C   0  0  0  0  0  0  0  0  0  0  0  0
   -3.3408   -2.9939    0.0000 C   0  0  0  0  0  0  0  0  0  0  0  0
   -2.5449   -3.4940    0.0000 C   0  0  0  0  0  0  0  0  0  0  0  0
   -2.5800   -4.4334    0.0000 C   0  0  0  0  0  0  0  0  0  0  0  0
   -1.7841   -4.9335    0.0000 F   0  0  0  0  0  0  0  0  0  0  0  0
   -3.4111   -4.8726    0.0000 C   0  0  0  0  0  0  0  0  0  0  0  0
   -3.4463   -5.8119    0.0000 F   0  0  0  0  0  0  0  0  0  0  0  0
   -1.6281   -0.0000    0.0000 C   0  0  2  0  0  0  0  0  0  0  0  0
   -2.4422   -0.4700    0.0000 H   0  0  0  0  0  0  0  0  0  0  0  0
   -2.4422    0.4700    0.0000 C   0  0  0  0  0  0  0  0  0  0  0  0
   -2.4422    1.4100    0.0000 O   0  0  0  0  0  0  0  0  0  0  0  0
   -1.6281    1.8800    0.0000 C   0  0  0  0  0  0  0  0  0  0  0  0
   -0.8141    1.4100    0.0000 C   0  0  0  0  0  0  0  0  0  0  0  0
   -0.8141    0.4700    0.0000 N   0  0  0  0  0  0  0  0  0  0  0  0
   -0.0000   -0.0000    0.0000 C   0  0  0  0  0  0  0  0  0  0  0  0
    0.8141    0.4700    0.0000 O   0  0  0  0  0  0  0  0  0  0  0  0
  1  2  1  0  0  0  0
  2  3  1  0  0  0  0
  3  4  2  0  0  0  0
  3  5  1  0  0  0  0
  5  6  1  0  0  0  0
  6  7  1  0  0  0  0
  7  8  1  0  0  0  0
  8 13  1  0  0  0  0
  8  9  2  0  0  0  0
  9 41  1  0  0  0  0
  9 10  1  0  0  0  0
 10 11  1  0  0  0  0
 10 15  1  0  0  0  0
 11 12  2  0  0  0  0
 12 13  1  0  0  0  0
 13 14  2  0  0  0  0
 15 16  1  0  0  0  0
 15 34  1  0  0  0  0
 16 17  1  6  0  0  0
 16 27  1  0  0  0  0
 16 18  1  0  0  0  0
 18 23  1  0  0  0  0
 18 19  2  0  0  0  0
 19 20  1  0  0  0  0
 20 21  2  0  0  0  0
 21 22  1  0  0  0  0
 22 23  2  0  0  0  0
 23 24  1  0  0  0  0
 24 25  1  0  0  0  0
 25 26  1  0  0  0  0
 26 32  1  0  0  0  0
 26 27  2  0  0  0  0
 27 28  1  0  0  0  0
 28 29  2  0  0  0  0
 29 30  1  0  0  0  0
 30 31  1  0  0  0  0
 30 32  2  0  0  0  0
 32 33  1  0  0  0  0
 34 35  1  1  0  0  0
 34 40  1  0  0  0  0
 34 36  1  0  0  0  0
 36 37  1  0  0  0  0
 37 38  1  0  0  0  0
 38 39  1  0  0  0  0
 39 40  1  0  0  0  0
 40 41  1  0  0  0  0
 41 42  2  0  0  0  0
M  END
$$$$

 OpenBabel10082008492D

 10 10  0  0  0  0  0  0  0  0999 V2000
    1.7321   -0.0000    0.0000 C   0  0  0  0  0  0  0  0  0  0  0  0
    0.8660   -0.5000    0.0000 N   0  3  0  0  0  0  0  0  0  0  0  0
    0.8660   -1.5000    0.0000 C   0  0  0  0  0  0  0  0  0  0  0  0
    0.0000   -2.0000    0.0000 C   0  0  0  0  0  0  0  0  0  0  0  0
   -0.8660   -1.5000    0.0000 C   0  0  0  0  0  0  0  0  0  0  0  0
   -0.8660   -0.5000    0.0000 C   0  0  0  0  0  0  0  0  0  0  0  0
    0.0000   -0.0000    0.0000 C   0  0  0  0  0  0  0  0  0  0  0  0
   -0.0000    1.0000    0.0000 C   0  0  0  0  0  0  0  0  0  0  0  0
   -0.8660    1.5000    0.0000 N   0  0  0  0  0  0  0  0  0  0  0  0
   -0.8660    2.5000    0.0000 O   0  0  0  0  0  0  0  0  0  0  0  0
  1  2  1  0  0  0  0
  2  7  1  0  0  0  0
  2  3  2  0  0  0  0
  3  4  1  0  0  0  0
  4  5  2  0  0  0  0
  5  6  1  0  0  0  0
  6  7  2  0  0  0  0
  7  8  1  0  0  0  0
  8  9  2  3  0  0  0
  9 10  1  0  0  0  0
M  CHG  1   2   1
M  END
$$$$

 OpenBabel10082008492D

 34 38  0  0  0  0  0  0  0  0999 V2000
    1.6750    2.0878    0.0000 O   0  0  0  0  0  0  0  0  0  0  0  0
    0.8090    1.5878    0.0000 C   0  0  0  0  0  0  0  0  0  0  0  0
   -0.0570    2.0878    0.0000 C   0  0  0  0  0  0  0  0  0  0  0  0
   -0.9230    1.5878    0.0000 C   0  0  0  0  0  0  0  0  0  0  0  0
   -1.7891    2.0878    0.0000 C   0  0  0  0  0  0  0  0  0  0  0  0
   -1.7891    3.0878    0.0000 C   0  0  0  0  0  0  0  0  0  0  0  0
   -2.6551    3.5878    0.0000 O   0  0  0  0  0  0  0  0  0  0  0  0
   -3.5211    3.0878    0.0000 C   0  0  0  0  0  0  0  0  0  0  0  0
   -4.3871    3.5878    0.0000 C   0  0  0  0  0  0  0  0  0  0  0  0
   -5.2532    3.0878    0.0000 N   0  0  0  0  0  0  0  0  0  0  0  0
   -5.2532    2.0878    0.0000 C   0  0  0  0  0  0  0  0  0  0  0  0
   -6.1192    1.5878    0.0000 C   0  0  0  0  0  0  0  0  0  0  0  0
   -6.9852    2.0878    0.0000 C   0  0  0  0  0  0  0  0  0  0  0  0
   -6.9852    3.0878    0.0000 C   0  0  0  0  0  0  0  0  0  0  0  0
   -6.1192    3.5878    0.0000 C   0  0  0  0  0  0  0  0  0  0  0  0
   -0.9230    3.5878    0.0000 C   0  0  0  0  0  0  0  0  0  0  0  0
   -0.0570    3.0878    0.0000 C   0  0  0  0  0  0  0  0  0  0  0  0
    0.8090    0.5878    0.0000 C   0  0  0  0  0  0  0  0  0  0  0  0
    1.6180    0.0000    0.0000 C   0  0  0  0  0  0  0  0  0  0  0  0
    2.5691    0.3090    0.0000 C   0  0  0  0  0  0  0  0  0  0  0  0
    2.7770    1.2872    0.0000 C   0  0  0  0  0  0  0  0  0  0  0  0
    3.7281    1.5962    0.0000 C   0  0  0  0  0  0  0  0  0  0  0  0
    4.4712    0.9271    0.0000 C   0  0  0  0  0  0  0  0  0  0  0  0
    5.4223    1.2361    0.0000 O   0  0  0  0  0  0  0  0  0  0  0  0
    4.2633   -0.0511    0.0000 C   0  0  0  0  0  0  0  0  0  0  0  0
    3.3122   -0.3601    0.0000 C   0  0  0  0  0  0  0  0  0  0  0  0
    1.3090   -0.9511    0.0000 S   0  0  0  0  0  0  0  0  0  0  0  0
    0.3090   -0.9511    0.0000 C   0  0  0  0  0  0  0  0  0  0  0  0
   -0.3601   -1.6942    0.0000 C   0  0  0  0  0  0  0  0  0  0  0  0
   -1.3383   -1.4863    0.0000 C   0  0  0  0  0  0  0  0  0  0  0  0
   -2.0074   -2.2294    0.0000 O   0  0  0  0  0  0  0  0  0  0  0  0
   -1.6473   -0.5352    0.0000 C   0  0  0  0  0  0  0  0  0  0  0  0
   -0.9781    0.2079    0.0000 C   0  0  0  0  0  0  0  0  0  0  0  0
    0.0000   -0.0000    0.0000 C   0  0  0  0  0  0  0  0  0  0  0  0
  1  2  2  0  0  0  0
  2  3  1  0  0  0  0
  2 18  1  0  0  0  0
  3 17  1  0  0  0  0
  3  4  2  0  0  0  0
  4  5  1  0  0  0  0
  5  6  2  0  0  0  0
  6  7  1  0  0  0  0
  6 16  1  0  0  0  0
  7  8  1  0  0  0  0
  8  9  1  0  0  0  0
  9 10  1  0  0  0  0
 10 15  1  0  0  0  0
 10 11  1  0  0  0  0
 11 12  1  0  0  0  0
 12 13  1  0  0  0  0
 13 14  1  0  0  0  0
 14 15  1  0  0  0  0
 16 17  2  0  0  0  0
 18 34  1  0  0  0  0
 18 19  2  0  0  0  0
 19 20  1  0  0  0  0
 19 27  1  0  0  0  0
 20 26  1  0  0  0  0
 20 21  2  0  0  0  0
 21 22  1  0  0  0  0
 22 23  2  0  0  0  0
 23 24  1  0  0  0  0
 23 25  1  0  0  0  0
 25 26  2  0  0  0  0
 27 28  1  0  0  0  0
 28 34  1  0  0  0  0
 28 29  2  0  0  0  0
 29 30  1  0  0  0  0
 30 31  1  0  0  0  0
 30 32  2  0  0  0  0
 32 33  1  0  0  0  0
 33 34  2  0  0  0  0
M  END
$$$$

 OpenBabel10082008492D

 28 31  0  0  0  0  0  0  0  0999 V2000
    1.8080   -1.9316    0.0000 O   0  0  0  0  0  0  0  0  0  0  0  0
    1.4013   -1.0181    0.0000 C   0  0  0  0  0  0  0  0  0  0  0  0
    1.9890   -0.2091    0.0000 O   0  0  0  0  0  0  0  0  0  0  0  0
    0.4067   -0.9135    0.0000 C   0  0  0  0  0  0  0  0  0  0  0  0
   -0.1810   -1.7226    0.0000 C   0  0  0  0  0  0  0  0  0  0  0  0
   -1.1756   -1.6180    0.0000 C   0  0  0  0  0  0  0  0  0  0  0  0
   -1.5823   -0.7045    0.0000 C   0  0  0  0  0  0  0  0  0  0  0  0
   -2.5768   -0.6000    0.0000 N   0  0  0  0  0  0  0  0  0  0  0  0
   -3.2460   -1.3431    0.0000 N   0  0  0  0  0  0  0  0  0  0  0  0
   -4.1595   -0.9364    0.0000 C   0  0  0  0  0  0  0  0  0  0  0  0
   -5.0255   -1.4364    0.0000 C   0  0  0  0  0  0  0  0  0  0  0  0
   -5.0255   -2.4364    0.0000 C   0  0  0  0  0  0  0  0  0  0  0  0
   -5.8916   -2.9364    0.0000 C   0  0  0  0  0  0  0  0  0  0  0  0
   -6.7576   -2.4364    0.0000 C   0  0  0  0  0  0  0  0  0  0  0  0
   -6.7576   -1.4364    0.0000 C   0  0  0  0  0  0  0  0  0  0  0  0
   -5.8916   -0.9364    0.0000 C   0  0  0  0  0  0  0  0  0  0  0  0
   -5.8916    0.0636    0.0000 O   0  0  0  0  0  0  0  0  0  0  0  0
   -4.0550    0.0582    0.0000 N   0  0  0  0  0  0  0  0  0  0  0  0
   -3.0768    0.2661    0.0000 C   0  0  0  0  0  0  0  0  0  0  0  0
   -2.6701    1.1796    0.0000 C   0  0  0  0  0  0  0  0  0  0  0  0
   -1.6756    1.2841    0.0000 C   0  0  0  0  0  0  0  0  0  0  0  0
   -1.2688    2.1977    0.0000 C   0  0  0  0  0  0  0  0  0  0  0  0
   -1.8566    3.0067    0.0000 C   0  0  0  0  0  0  0  0  0  0  0  0
   -2.8511    2.9022    0.0000 C   0  0  0  0  0  0  0  0  0  0  0  0
   -3.2579    1.9886    0.0000 C   0  0  0  0  0  0  0  0  0  0  0  0
   -4.2524    1.8841    0.0000 O   0  0  0  0  0  0  0  0  0  0  0  0
   -0.9945    0.1045    0.0000 C   0  0  0  0  0  0  0  0  0  0  0  0
   -0.0000   -0.0000    0.0000 C   0  0  0  0  0  0  0  0  0  0  0  0
  1  2  2  0  0  0  0
  2  3  1  0  0  0  0
  2  4  1  0  0  0  0
  4 28  1  0  0  0  0
  4  5  2  0  0  0  0
  5  6  1  0  0  0  0
  6  7  2  0  0  0  0
  7  8  1  0  0  0  0
  7 27  1  0  0  0  0
  8 19  1  0  0  0  0
  8  9  1  0  0  0  0
  9 10  2  0  0  0  0
 10 11  1  0  0  0  0
 10 18  1  0  0  0  0
 11 16  1  0  0  0  0
 11 12  2  0  0  0  0
 12 13  1  0  0  0  0
 13 14  2  0  0  0  0
 14 15  1  0  0  0  0
 15 16  2  0  0  0  0
 16 17  1  0  0  0  0
 18 19  2  0  0  0  0
 19 20  1  0  0  0  0
 20 25  1  0  0  0  0
 20 21  2  0  0  0  0
 21 22  1  0  0  0  0
 22 23  2  0  0  0  0
 23 24  1  0  0  0  0
 24 25  2  0  0  0  0
 25 26  1  0  0  0  0
 27 28  2  0  0  0  0
M  END
$$$$

 OpenBabel10082008492D

 22 23  0  0  0  0  0  0  0  0999 V2000
   -2.5981   -1.5000    0.0000 C   0  0  0  0  0  0  0  0  0  0  0  0
   -1.7321   -2.0000    0.0000 N   0  0  0  0  0  0  0  0  0  0  0  0
   -1.7321   -3.0000    0.0000 C   0  0  0  0  0  0  0  0  0  0  0  0
   -0.8660   -3.5000    0.0000 C   0  0  0  0  0  0  0  0  0  0  0  0
   -0.0000   -3.0000    0.0000 C   0  0  0  0  0  0  0  0  0  0  0  0
    0.8660   -3.5000    0.0000 C   0  0  0  0  0  0  0  0  0  0  0  0
    1.7321   -4.0000    0.0000 C   0  0  0  0  0  0  0  0  0  0  0  0
    2.5981   -4.5000    0.0000 C   0  0  0  0  0  0  0  0  0  0  0  0
    3.5981   -4.5000    0.0000 C   0  0  0  0  0  0  0  0  0  0  0  0
    3.0981   -3.6340    0.0000 C   0  0  0  0  0  0  0  0  0  0  0  0
    2.5981   -5.5000    0.0000 C   0  0  0  0  0  0  0  0  0  0  0  0
   -0.8660   -1.5000    0.0000 C   0  0  0  0  0  0  0  0  0  0  0  0
   -0.8660   -0.5000    0.0000 C   0  0  0  0  0  0  0  0  0  0  0  0
   -1.7321   -0.0000    0.0000 C   0  0  0  0  0  0  0  0  0  0  0  0
   -1.7321    1.0000    0.0000 C   0  0  0  0  0  0  0  0  0  0  0  0
   -0.8660    1.5000    0.0000 C   0  0  0  0  0  0  0  0  0  0  0  0
   -0.0000    1.0000    0.0000 C   0  0  0  0  0  0  0  0  0  0  0  0
    0.8660    1.5000    0.0000 C   0  0  0  0  0  0  0  0  0  0  0  0
    1.7321    1.0000    0.0000 C   0  0  0  0  0  0  0  0  0  0  0  0
    1.7321    0.0000    0.0000 C   0  0  0  0  0  0  0  0  0  0  0  0
    0.8660   -0.5000    0.0000 C   0  0  0  0  0  0  0  0  0  0  0  0
    0.0000   -0.0000    0.0000 C   0  0  0  0  0  0  0  0  0  0  0  0
  1  2  1  0  0  0  0
  2  3  1  0  0  0  0
  2 12  1  0  0  0  0
  3  4  1  0  0  0  0
  4  5  2  0  0  0  0
  5  6  1  0  0  0  0
  6  7  3  0  0  0  0
  7  8  1  0  0  0  0
  8  9  1  0  0  0  0
  8 10  1  0  0  0  0
  8 11  1  0  0  0  0
 12 13  1  0  0  0  0
 13 22  1  0  0  0  0
 13 14  2  0  0  0  0
 14 15  1  0  0  0  0
 15 16  2  0  0  0  0
 16 17  1  0  0  0  0
 17 22  1  0  0  0  0
 17 18  2  0  0  0  0
 18 19  1  0  0  0  0
 19 20  2  0  0  0  0
 20 21  1  0  0  0  0
 21 22  2  0  0  0  0
M  END
$$$$

 OpenBabel10082008492D

 33 37  0  0  1  0  0  0  0  0999 V2000
   -1.4659    0.6072    0.0000 N   0  0  0  0  0  0  0  0  0  0  0  0
   -0.5000    0.8660    0.0000 C   0  0  1  0  0  0  0  0  0  0  0  0
   -0.9289    1.7694    0.0000 H   0  0  0  0  0  0  0  0  0  0  0  0
    0.5000    0.8660    0.0000 C   0  0  2  0  0  0  0  0  0  0  0  0
    0.9371    1.7655    0.0000 H   0  0  0  0  0  0  0  0  0  0  0  0
    1.4781    0.6581    0.0000 C   0  0  0  0  0  0  0  0  0  0  0  0
    1.5827   -0.3364    0.0000 N   0  0  0  0  0  0  0  0  0  0  0  0
    2.4487   -0.8364    0.0000 C   0  0  0  0  0  0  0  0  0  0  0  0
    3.3147   -0.3364    0.0000 N   0  0  0  0  0  0  0  0  0  0  0  0
    4.1808   -0.8364    0.0000 C   0  0  0  0  0  0  0  0  0  0  0  0
    4.1808   -1.8364    0.0000 C   0  0  0  0  0  0  0  0  0  0  0  0
    3.3147   -2.3364    0.0000 C   0  0  0  0  0  0  0  0  0  0  0  0
    2.4487   -1.8364    0.0000 C   0  0  0  0  0  0  0  0  0  0  0  0
    1.5827   -2.3364    0.0000 F   0  0  0  0  0  0  0  0  0  0  0  0
    5.0468   -2.3364    0.0000 C   0  0  0  0  0  0  0  0  0  0  0  0
    5.0468   -3.3364    0.0000 O   0  0  0  0  0  0  0  0  0  0  0  0
    5.9128   -1.8364    0.0000 C   0  0  0  0  0  0  0  0  0  0  0  0
    6.7788   -2.3364    0.0000 C   0  0  0  0  0  0  0  0  0  0  0  0
    6.7788   -3.3364    0.0000 O   0  0  0  0  0  0  0  0  0  0  0  0
    7.6449   -1.8364    0.0000 O   0  0  0  0  0  0  0  0  0  0  0  0
    5.9128   -0.8364    0.0000 C   0  0  0  0  0  0  0  0  0  0  0  0
    5.0468   -0.3364    0.0000 N   0  0  0  0  0  0  0  0  0  0  0  0
    5.0468    0.6636    0.0000 C   0  0  0  0  0  0  0  0  0  0  0  0
    4.1808    1.1636    0.0000 C   0  0  0  0  0  0  0  0  0  0  0  0
    4.1808    2.1636    0.0000 C   0  0  0  0  0  0  0  0  0  0  0  0
    5.0468    2.6636    0.0000 C   0  0  0  0  0  0  0  0  0  0  0  0
    5.0468    3.6636    0.0000 F   0  0  0  0  0  0  0  0  0  0  0  0
    5.9128    2.1636    0.0000 C   0  0  0  0  0  0  0  0  0  0  0  0
    5.9128    1.1636    0.0000 C   0  0  0  0  0  0  0  0  0  0  0  0
    6.7788    0.6636    0.0000 F   0  0  0  0  0  0  0  0  0  0  0  0
    0.6691   -0.7431    0.0000 C   0  0  0  0  0  0  0  0  0  0  0  0
    0.0000    0.0000    0.0000 C   0  0  2  0  0  0  0  0  0  0  0  0
   -0.5604   -0.8282    0.0000 H   0  0  0  0  0  0  0  0  0  0  0  0
  1  2  1  0  0  0  0
  2  3  1  6  0  0  0
  2 32  1  0  0  0  0
  2  4  1  0  0  0  0
  4  5  1  1  0  0  0
  4 32  1  0  0  0  0
  4  6  1  0  0  0  0
  6  7  1  0  0  0  0
  7  8  1  0  0  0  0
  7 31  1  0  0  0  0
  8 13  1  0  0  0  0
  8  9  2  0  0  0  0
  9 10  1  0  0  0  0
 10 22  1  0  0  0  0
 10 11  2  0  0  0  0
 11 12  1  0  0  0  0
 11 15  1  0  0  0  0
 12 13  2  0  0  0  0
 13 14  1  0  0  0  0
 15 16  2  0  0  0  0
 15 17  1  0  0  0  0
 17 18  1  0  0  0  0
 17 21  2  0  0  0  0
 18 19  2  0  0  0  0
 18 20  1  0  0  0  0
 21 22  1  0  0  0  0
 22 23  1  0  0  0  0
 23 29  1  0  0  0  0
 23 24  2  0  0  0  0
 24 25  1  0  0  0  0
 25 26  2  0  0  0  0
 26 27  1  0  0  0  0
 26 28  1  0  0  0  0
 28 29  2  0  0  0  0
 29 30  1  0  0  0  0
 31 32  1  0  0  0  0
 32 33  1  1  0  0  0
M  END
$$$$

 OpenBabel10082008492D

 30 33  0  0  0  0  0  0  0  0999 V2000
    7.9282   -3.0000    0.0000 C   0  0  0  0  0  0  0  0  0  0  0  0
    7.0622   -2.5000    0.0000 N   0  0  0  0  0  0  0  0  0  0  0  0
    6.1962   -3.0000    0.0000 C   0  0  0  0  0  0  0  0  0  0  0  0
    5.3301   -2.5000    0.0000 C   0  0  0  0  0  0  0  0  0  0  0  0
    5.3301   -1.5000    0.0000 N   0  0  0  0  0  0  0  0  0  0  0  0
    4.4641   -1.0000    0.0000 C   0  0  0  0  0  0  0  0  0  0  0  0
    3.5981   -1.5000    0.0000 C   0  0  0  0  0  0  0  0  0  0  0  0
    3.5981   -2.5000    0.0000 C   0  0  0  0  0  0  0  0  0  0  0  0
    2.7321   -3.0000    0.0000 C   0  0  0  0  0  0  0  0  0  0  0  0
    2.7321   -4.0000    0.0000 C   0  0  0  0  0  0  0  0  0  0  0  0
    3.5981   -4.5000    0.0000 C   0  0  0  0  0  0  0  0  0  0  0  0
    3.5981   -5.5000    0.0000 C   0  0  0  0  0  0  0  0  0  0  0  0
    2.7321   -6.0000    0.0000 C   0  0  0  0  0  0  0  0  0  0  0  0
    1.8660   -5.5000    0.0000 C   0  0  0  0  0  0  0  0  0  0  0  0
    1.8660   -4.5000    0.0000 C   0  0  0  0  0  0  0  0  0  0  0  0
    1.0000   -4.0000    0.0000 S   0  0  0  0  0  0  0  0  0  0  0  0
    1.0000   -3.0000    0.0000 C   0  0  0  0  0  0  0  0  0  0  0  0
    0.1340   -2.5000    0.0000 C   0  0  0  0  0  0  0  0  0  0  0  0
    0.1340   -1.5000    0.0000 C   0  0  0  0  0  0  0  0  0  0  0  0
    1.0000   -1.0000    0.0000 C   0  0  0  0  0  0  0  0  0  0  0  0
    1.0000   -0.0000    0.0000 S   0  0  0  0  0  0  0  0  0  0  0  0
    2.0000   -0.0000    0.0000 O   0  0  0  0  0  0  0  0  0  0  0  0
    1.0000    1.0000    0.0000 O   0  0  0  0  0  0  0  0  0  0  0  0
   -0.0000   -0.0000    0.0000 N   0  0  0  0  0  0  0  0  0  0  0  0
   -0.5000    0.8660    0.0000 C   0  0  0  0  0  0  0  0  0  0  0  0
   -0.5000   -0.8660    0.0000 C   0  0  0  0  0  0  0  0  0  0  0  0
    1.8660   -1.5000    0.0000 C   0  0  0  0  0  0  0  0  0  0  0  0
    1.8660   -2.5000    0.0000 C   0  0  0  0  0  0  0  0  0  0  0  0
    6.1962   -1.0000    0.0000 C   0  0  0  0  0  0  0  0  0  0  0  0
    7.0622   -1.5000    0.0000 C   0  0  0  0  0  0  0  0  0  0  0  0
  1  2  1  0  0  0  0
  2 30  1  0  0  0  0
  2  3  1  0  0  0  0
  3  4  1  0  0  0  0
  4  5  1  0  0  0  0
  5  6  1  0  0  0  0
  5 29  1  0  0  0  0
  6  7  1  0  0  0  0
  7  8  1  0  0  0  0
  8  9  2  0  0  0  0
  9 28  1  0  0  0  0
  9 10  1  0  0  0  0
 10 15  1  0  0  0  0
 10 11  2  0  0  0  0
 11 12  1  0  0  0  0
 12 13  2  0  0  0  0
 13 14  1  0  0  0  0
 14 15  2  0  0  0  0
 15 16  1  0  0  0  0
 16 17  1  0  0  0  0
 17 28  1  0  0  0  0
 17 18  2  0  0  0  0
 18 19  1  0  0  0  0
 19 20  2  0  0  0  0
 20 21  1  0  0  0  0
 20 27  1  0  0  0  0
 21 22  2  0  0  0  0
 21 23  2  0  0  0  0
 21 24  1  0  0  0  0
 24 25  1  0  0  0  0
 24 26  1  0  0  0  0
 27 28  2  0  0  0  0
 29 30  1  0  0  0  0
M  END
$$$$

 OpenBabel10082008492D

 22 24  0  0  1  0  0  0  0  0999 V2000
   -2.2585   -1.3271    0.0000 O   0  0  0  0  0  0  0  0  0  0  0  0
   -1.2836   -1.1046    0.0000 C   0  0  0  0  0  0  0  0  0  0  0  0
   -0.6034   -1.8377    0.0000 O   0  0  0  0  0  0  0  0  0  0  0  0
   -0.9888   -0.1490    0.0000 C   0  0  3  0  0  0  0  0  0  0  0  0
   -1.7219    0.5311    0.0000 N   0  0  0  0  0  0  0  0  0  0  0  0
   -1.6472    1.5283    0.0000 C   0  0  0  0  0  0  0  0  0  0  0  0
   -2.5132    2.0283    0.0000 C   0  0  0  0  0  0  0  0  0  0  0  0
   -3.3792    1.5283    0.0000 C   0  0  0  0  0  0  0  0  0  0  0  0
   -4.2452    2.0283    0.0000 C   0  0  0  0  0  0  0  0  0  0  0  0
   -4.2452    3.0283    0.0000 C   0  0  0  0  0  0  0  0  0  0  0  0
   -3.3792    3.5283    0.0000 C   0  0  0  0  0  0  0  0  0  0  0  0
   -2.5132    3.0283    0.0000 C   0  0  0  0  0  0  0  0  0  0  0  0
   -0.8209    2.0917    0.0000 C   0  0  0  0  0  0  0  0  0  0  0  0
   -1.0434    3.0666    0.0000 C   0  0  0  0  0  0  0  0  0  0  0  0
   -0.3104    3.7468    0.0000 C   0  0  0  0  0  0  0  0  0  0  0  0
   -0.5329    4.7217    0.0000 Cl  0  0  0  0  0  0  0  0  0  0  0  0
    0.6452    3.4520    0.0000 C   0  0  0  0  0  0  0  0  0  0  0  0
    0.8677    2.4771    0.0000 C   0  0  0  0  0  0  0  0  0  0  0  0
    0.1347    1.7969    0.0000 C   0  0  0  0  0  0  0  0  0  0  0  0
    0.5000    0.8660    0.0000 N   0  0  0  0  0  0  0  0  0  0  0  0
    0.0000    0.0000    0.0000 C   0  0  0  0  0  0  0  0  0  0  0  0
    0.5633   -0.8262    0.0000 O   0  0  0  0  0  0  0  0  0  0  0  0
  1  2  2  0  0  0  0
  2  3  1  0  0  0  0
  2  4  1  0  0  0  0
  4 21  1  0  0  0  0
  4  5  1  0  0  0  0
  5  6  2  0  0  0  0
  6  7  1  0  0  0  0
  6 13  1  0  0  0  0
  7 12  1  0  0  0  0
  7  8  2  0  0  0  0
  8  9  1  0  0  0  0
  9 10  2  0  0  0  0
 10 11  1  0  0  0  0
 11 12  2  0  0  0  0
 13 19  1  0  0  0  0
 13 14  2  0  0  0  0
 14 15  1  0  0  0  0
 15 16  1  0  0  0  0
 15 17  2  0  0  0  0
 17 18  1  0  0  0  0
 18 19  2  0  0  0  0
 19 20  1  0  0  0  0
 20 21  1  0  0  0  0
 21 22  2  0  0  0  0
M  END
$$$$

 OpenBabel10082008492D

 10 10  0  0  0  0  0  0  0  0999 V2000
   -2.5981   -1.5000    0.0000 N   0  0  0  0  0  0  0  0  0  0  0  0
   -1.7321   -2.0000    0.0000 N   0  0  0  0  0  0  0  0  0  0  0  0
   -0.8660   -1.5000    0.0000 C   0  0  0  0  0  0  0  0  0  0  0  0
   -0.0000   -2.0000    0.0000 O   0  0  0  0  0  0  0  0  0  0  0  0
   -0.8660   -0.5000    0.0000 C   0  0  0  0  0  0  0  0  0  0  0  0
   -1.7321   -0.0000    0.0000 C   0  0  0  0  0  0  0  0  0  0  0  0
   -1.7321    1.0000    0.0000 C   0  0  0  0  0  0  0  0  0  0  0  0
   -0.8660    1.5000    0.0000 N   0  0  0  0  0  0  0  0  0  0  0  0
   -0.0000    1.0000    0.0000 C   0  0  0  0  0  0  0  0  0  0  0  0
    0.0000   -0.0000    0.0000 C   0  0  0  0  0  0  0  0  0  0  0  0
  1  2  1  0  0  0  0
  2  3  1  0  0  0  0
  3  4  2  0  0  0  0
  3  5  1  0  0  0  0
  5 10  1  0  0  0  0
  5  6  2  0  0  0  0
  6  7  1  0  0  0  0
  7  8  2  0  0  0  0
  8  9  1  0  0  0  0
  9 10  2  0  0  0  0
M  END
$$$$

 OpenBabel10082008492D

 30 32  0  0  0  0  0  0  0  0999 V2000
   -0.3929    5.0019    0.0000 C   0  0  0  0  0  0  0  0  0  0  0  0
   -0.6008    4.0238    0.0000 C   0  0  0  0  0  0  0  0  0  0  0  0
    0.1424    3.3546    0.0000 C   0  0  0  0  0  0  0  0  0  0  0  0
    1.0934    3.6637    0.0000 C   0  0  0  0  0  0  0  0  0  0  0  0
    1.8366    2.9945    0.0000 C   0  0  0  0  0  0  0  0  0  0  0  0
    2.8147    3.2024    0.0000 N   0  0  0  0  0  0  0  0  0  0  0  0
    3.3147    2.3364    0.0000 C   0  0  0  0  0  0  0  0  0  0  0  0
    2.6456    1.5933    0.0000 C   0  0  0  0  0  0  0  0  0  0  0  0
    2.8535    0.6151    0.0000 C   0  0  0  0  0  0  0  0  0  0  0  0
    3.8046    0.3061    0.0000 C   0  0  0  0  0  0  0  0  0  0  0  0
    4.5477    0.9752    0.0000 C   0  0  0  0  0  0  0  0  0  0  0  0
    5.4988    0.6662    0.0000 C   0  0  0  0  0  0  0  0  0  0  0  0
    5.8078   -0.2848    0.0000 C   0  0  0  0  0  0  0  0  0  0  0  0
    6.8078   -0.2848    0.0000 C   0  0  0  0  0  0  0  0  0  0  0  0
    7.1168    0.6662    0.0000 C   0  0  0  0  0  0  0  0  0  0  0  0
    6.3078    1.2540    0.0000 S   0  0  0  0  0  0  0  0  0  0  0  0
    4.0125   -0.6720    0.0000 C   0  0  0  0  0  0  0  0  0  0  0  0
    4.9635   -0.9811    0.0000 O   0  0  0  0  0  0  0  0  0  0  0  0
    3.2693   -1.3412    0.0000 O   0  0  0  0  0  0  0  0  0  0  0  0
    1.7321    2.0000    0.0000 N   0  0  0  0  0  0  0  0  0  0  0  0
    0.8660    1.5000    0.0000 C   0  0  0  0  0  0  0  0  0  0  0  0
    0.8660    0.5000    0.0000 C   0  0  0  0  0  0  0  0  0  0  0  0
    1.7321    0.0000    0.0000 C   0  0  0  0  0  0  0  0  0  0  0  0
    1.7321   -1.0000    0.0000 C   0  0  0  0  0  0  0  0  0  0  0  0
    0.8660   -1.5000    0.0000 C   0  0  0  0  0  0  0  0  0  0  0  0
    0.8660   -2.5000    0.0000 C   0  0  0  0  0  0  0  0  0  0  0  0
    0.0000   -3.0000    0.0000 O   0  0  0  0  0  0  0  0  0  0  0  0
    1.7321   -3.0000    0.0000 O   0  0  0  0  0  0  0  0  0  0  0  0
    0.0000   -1.0000    0.0000 C   0  0  0  0  0  0  0  0  0  0  0  0
    0.0000   -0.0000    0.0000 C   0  0  0  0  0  0  0  0  0  0  0  0
  1  2  1  0  0  0  0
  2  3  1  0  0  0  0
  3  4  1  0  0  0  0
  4  5  1  0  0  0  0
  5 20  1  0  0  0  0
  5  6  2  0  0  0  0
  6  7  1  0  0  0  0
  7  8  2  0  0  0  0
  8  9  1  0  0  0  0
  8 20  1  0  0  0  0
  9 10  2  0  0  0  0
 10 11  1  0  0  0  0
 10 17  1  0  0  0  0
 11 12  1  0  0  0  0
 12 16  1  0  0  0  0
 12 13  2  0  0  0  0
 13 14  1  0  0  0  0
 14 15  2  0  0  0  0
 15 16  1  0  0  0  0
 17 18  2  0  0  0  0
 17 19  1  0  0  0  0
 20 21  1  0  0  0  0
 21 22  1  0  0  0  0
 22 30  1  0  0  0  0
 22 23  2  0  0  0  0
 23 24  1  0  0  0  0
 24 25  2  0  0  0  0
 25 26  1  0  0  0  0
 25 29  1  0  0  0  0
 26 27  2  0  0  0  0
 26 28  1  0  0  0  0
 29 30  2  0  0  0  0
M  END
$$$$

 OpenBabel10082008492D

 26 28  0  0  0  0  0  0  0  0999 V2000
    3.4641   -1.0000    0.0000 C   0  0  0  0  0  0  0  0  0  0  0  0
    3.4641    0.0000    0.0000 C   0  0  0  0  0  0  0  0  0  0  0  0
    4.3301    0.5000    0.0000 C   0  0  0  0  0  0  0  0  0  0  0  0
    4.3301    1.5000    0.0000 C   0  0  0  0  0  0  0  0  0  0  0  0
    5.1962    2.0000    0.0000 C   0  0  0  0  0  0  0  0  0  0  0  0
    6.0622    1.5000    0.0000 C   0  0  0  0  0  0  0  0  0  0  0  0
    6.9282    2.0000    0.0000 C   0  0  0  0  0  0  0  0  0  0  0  0
    7.7942    1.5000    0.0000 O   0  0  0  0  0  0  0  0  0  0  0  0
    6.9282    3.0000    0.0000 O   0  0  0  0  0  0  0  0  0  0  0  0
    6.0622    0.5000    0.0000 C   0  0  0  0  0  0  0  0  0  0  0  0
    5.1962    0.0000    0.0000 C   0  0  0  0  0  0  0  0  0  0  0  0
    2.5981    0.5000    0.0000 C   0  0  0  0  0  0  0  0  0  0  0  0
    1.7321    0.0000    0.0000 C   0  0  0  0  0  0  0  0  0  0  0  0
    0.8660    0.5000    0.0000 C   0  0  0  0  0  0  0  0  0  0  0  0
    0.8660    1.5000    0.0000 C   0  0  0  0  0  0  0  0  0  0  0  0
    1.7321    2.0000    0.0000 C   0  0  0  0  0  0  0  0  0  0  0  0
    2.5981    1.5000    0.0000 C   0  0  0  0  0  0  0  0  0  0  0  0
    3.4641    2.0000    0.0000 C   0  0  0  0  0  0  0  0  0  0  0  0
    0.0000    2.0000    0.0000 C   0  0  0  0  0  0  0  0  0  0  0  0
    0.5000    2.8660    0.0000 C   0  0  0  0  0  0  0  0  0  0  0  0
   -0.5000    2.8660    0.0000 C   0  0  0  0  0  0  0  0  0  0  0  0
   -0.8660    1.5000    0.0000 C   0  0  0  0  0  0  0  0  0  0  0  0
   -0.8660    0.5000    0.0000 C   0  0  0  0  0  0  0  0  0  0  0  0
    0.0000    0.0000    0.0000 C   0  0  0  0  0  0  0  0  0  0  0  0
   -0.5000   -0.8660    0.0000 C   0  0  0  0  0  0  0  0  0  0  0  0
    0.5000   -0.8660    0.0000 C   0  0  0  0  0  0  0  0  0  0  0  0
  1  2  2  0  0  0  0
  2  3  1  0  0  0  0
  2 12  1  0  0  0  0
  3 11  1  0  0  0  0
  3  4  2  0  0  0  0
  4  5  1  0  0  0  0
  5  6  2  0  0  0  0
  6  7  1  0  0  0  0
  6 10  1  0  0  0  0
  7  8  2  0  0  0  0
  7  9  1  0  0  0  0
 10 11  2  0  0  0  0
 12 17  1  0  0  0  0
 12 13  2  0  0  0  0
 13 14  1  0  0  0  0
 14 24  1  0  0  0  0
 14 15  2  0  0  0  0
 15 16  1  0  0  0  0
 15 19  1  0  0  0  0
 16 17  2  0  0  0  0
 17 18  1  0  0  0  0
 19 20  1  0  0  0  0
 19 21  1  0  0  0  0
 19 22  1  0  0  0  0
 22 23  1  0  0  0  0
 23 24  1  0  0  0  0
 24 25  1  0  0  0  0
 24 26  1  0  0  0  0
M  END
$$$$

 OpenBabel10082008492D

 14 14  0  0  1  0  0  0  0  0999 V2000
    2.5981   -2.5000    0.0000 C   0  0  0  0  0  0  0  0  0  0  0  0
    1.7321   -2.0000    0.0000 C   0  0  2  0  0  0  0  0  0  0  0  0
    2.2321   -1.1340    0.0000 N   0  0  0  0  0  0  0  0  0  0  0  0
    0.8660   -1.5000    0.0000 C   0  0  0  0  0  0  0  0  0  0  0  0
    0.8660   -0.5000    0.0000 C   0  0  0  0  0  0  0  0  0  0  0  0
    1.7321   -0.0000    0.0000 C   0  0  0  0  0  0  0  0  0  0  0  0
    1.7321    1.0000    0.0000 C   0  0  0  0  0  0  0  0  0  0  0  0
    0.8660    1.5000    0.0000 C   0  0  0  0  0  0  0  0  0  0  0  0
    0.8660    2.5000    0.0000 O   0  0  0  0  0  0  0  0  0  0  0  0
    0.0000    1.0000    0.0000 C   0  0  0  0  0  0  0  0  0  0  0  0
   -0.0000   -0.0000    0.0000 C   0  0  0  0  0  0  0  0  0  0  0  0
    1.2321   -2.8660    0.0000 C   0  0  0  0  0  0  0  0  0  0  0  0
    0.2321   -2.8660    0.0000 O   0  0  0  0  0  0  0  0  0  0  0  0
    1.7321   -3.7321    0.0000 O   0  0  0  0  0  0  0  0  0  0  0  0
  2  1  1  1  0  0  0
  2  3  1  0  0  0  0
  2  4  1  0  0  0  0
  2 12  1  0  0  0  0
  4  5  1  0  0  0  0
  5 11  1  0  0  0  0
  5  6  2  0  0  0  0
  6  7  1  0  0  0  0
  7  8  2  0  0  0  0
  8  9  1  0  0  0  0
  8 10  1  0  0  0  0
 10 11  2  0  0  0  0
 12 13  2  0  0  0  0
 12 14  1  0  0  0  0
M  END
$$$$

 OpenBabel10082008492D

 20 22  0  0  0  0  0  0  0  0999 V2000
   -4.5747   -0.4266    0.0000 C   0  0  0  0  0  0  0  0  0  0  0  0
   -3.8416   -1.1068    0.0000 N   0  0  0  0  0  0  0  0  0  0  0  0
   -2.8861   -0.8120    0.0000 C   0  0  0  0  0  0  0  0  0  0  0  0
   -2.1530   -1.4922    0.0000 C   0  0  0  0  0  0  0  0  0  0  0  0
   -1.1974   -1.1974    0.0000 C   0  0  0  0  0  0  0  0  0  0  0  0
   -0.9749   -0.2225    0.0000 N   0  0  0  0  0  0  0  0  0  0  0  0
   -1.7568    0.4010    0.0000 C   0  0  0  0  0  0  0  0  0  0  0  0
   -2.6228   -0.0990    0.0000 C   0  0  0  0  0  0  0  0  0  0  0  0
   -3.4888    0.4010    0.0000 C   0  0  0  0  0  0  0  0  0  0  0  0
   -3.4888    1.4010    0.0000 C   0  0  0  0  0  0  0  0  0  0  0  0
   -2.6228    1.9010    0.0000 C   0  0  0  0  0  0  0  0  0  0  0  0
   -1.7568    1.4010    0.0000 C   0  0  0  0  0  0  0  0  0  0  0  0
   -0.9749    2.0245    0.0000 C   0  0  0  0  0  0  0  0  0  0  0  0
   -0.0000    1.8019    0.0000 C   0  0  0  0  0  0  0  0  0  0  0  0
    0.4339    0.9010    0.0000 C   0  0  0  0  0  0  0  0  0  0  0  0
    1.4311    0.9757    0.0000 C   0  0  0  0  0  0  0  0  0  0  0  0
    1.9944    0.1495    0.0000 C   0  0  0  0  0  0  0  0  0  0  0  0
    1.5605   -0.7515    0.0000 C   0  0  0  0  0  0  0  0  0  0  0  0
    0.5633   -0.8262    0.0000 C   0  0  0  0  0  0  0  0  0  0  0  0
   -0.0000   -0.0000    0.0000 C   0  0  0  0  0  0  0  0  0  0  0  0
  1  2  1  0  0  0  0
  2  3  1  0  0  0  0
  3  4  1  0  0  0  0
  4  5  1  0  0  0  0
  5  6  1  0  0  0  0
  6 20  1  0  0  0  0
  6  7  1  0  0  0  0
  7 12  1  0  0  0  0
  7  8  2  0  0  0  0
  8  9  1  0  0  0  0
  9 10  2  0  0  0  0
 10 11  1  0  0  0  0
 11 12  2  0  0  0  0
 12 13  1  0  0  0  0
 13 14  1  0  0  0  0
 14 15  1  0  0  0  0
 15 20  1  0  0  0  0
 15 16  2  0  0  0  0
 16 17  1  0  0  0  0
 17 18  2  0  0  0  0
 18 19  1  0  0  0  0
 19 20  2  0  0  0  0
M  END
$$$$

 OpenBabel10082008492D

 24 26  0  0  1  0  0  0  0  0999 V2000
   -2.6297    0.4959    0.0000 C   0  0  0  0  0  0  0  0  0  0  0  0
   -1.7707   -0.0001    0.0000 N   0  3  0  0  0  0  0  0  0  0  0  0
   -2.6297   -0.4961    0.0000 C   0  0  0  0  0  0  0  0  0  0  0  0
   -0.8854    0.5111    0.0000 C   0  0  1  0  0  0  0  0  0  0  0  0
   -0.8854    1.5030    0.0000 H   0  0  0  0  0  0  0  0  0  0  0  0
   -1.9077    0.5111    0.0000 C   0  0  0  0  0  0  0  0  0  0  0  0
   -2.2819   -0.1371    0.0000 C   0  0  0  0  0  0  0  0  0  0  0  0
   -1.7707   -1.0224    0.0000 C   0  0  2  0  0  0  0  0  0  0  0  0
   -2.6297   -1.5184    0.0000 H   0  0  0  0  0  0  0  0  0  0  0  0
   -0.8854   -1.5336    0.0000 C   0  0  0  0  0  0  0  0  0  0  0  0
    0.0000   -1.0223    0.0000 C   0  0  2  0  0  0  0  0  0  0  0  0
    0.8590   -1.5183    0.0000 H   0  0  0  0  0  0  0  0  0  0  0  0
    0.8590   -0.5264    0.0000 O   0  0  0  0  0  0  0  0  0  0  0  0
    1.1157    0.4318    0.0000 C   0  0  0  0  0  0  0  0  0  0  0  0
    0.4143    1.1331    0.0000 O   0  0  0  0  0  0  0  0  0  0  0  0
    2.0738    0.6885    0.0000 C   0  0  3  0  0  0  0  0  0  0  0  0
    2.3305    1.6466    0.0000 O   0  0  0  0  0  0  0  0  0  0  0  0
    2.7752   -0.0128    0.0000 C   0  0  0  0  0  0  0  0  0  0  0  0
    2.5185   -0.9709    0.0000 C   0  0  0  0  0  0  0  0  0  0  0  0
    3.2199   -1.6723    0.0000 C   0  0  0  0  0  0  0  0  0  0  0  0
    3.8959   -1.3150    0.0000 C   0  0  0  0  0  0  0  0  0  0  0  0
    4.0380   -0.5637    0.0000 C   0  0  0  0  0  0  0  0  0  0  0  0
    3.5393    0.0158    0.0000 C   0  0  0  0  0  0  0  0  0  0  0  0
    0.0000   -0.0000    0.0000 C   0  0  0  0  0  0  0  0  0  0  0  0
  1  2  1  0  0  0  0
  2  8  1  0  0  0  0
  2  3  1  0  0  0  0
  2  4  1  0  0  0  0
  4  5  1  6  0  0  0
  4 24  1  0  0  0  0
  4  6  1  0  0  0  0
  6  7  1  0  0  0  0
  7  8  1  0  0  0  0
  8  9  1  6  0  0  0
  8 10  1  0  0  0  0
 10 11  1  0  0  0  0
 11 12  1  6  0  0  0
 11 13  1  0  0  0  0
 11 24  1  0  0  0  0
 13 14  1  0  0  0  0
 14 15  2  0  0  0  0
 14 16  1  0  0  0  0
 16 17  1  0  0  0  0
 16 18  1  0  0  0  0
 18 23  1  0  0  0  0
 18 19  2  0  0  0  0
 19 20  1  0  0  0  0
 20 21  2  0  0  0  0
 21 22  1  0  0  0  0
 22 23  2  0  0  0  0
M  CHG  1   2   1
M  END
$$$$

 OpenBabel10082008492D

 24 26  0  0  0  0  0  0  0  0999 V2000
   -0.0633    1.6923    0.0000 O   0  0  0  0  0  0  0  0  0  0  0  0
    0.5000    0.8660    0.0000 C   0  0  0  0  0  0  0  0  0  0  0  0
    1.4888    1.0151    0.0000 C   0  0  0  0  0  0  0  0  0  0  0  0
    2.2219    0.3349    0.0000 N   0  0  0  0  0  0  0  0  0  0  0  0
    2.1472   -0.6623    0.0000 C   0  0  0  0  0  0  0  0  0  0  0  0
    3.0132   -1.1623    0.0000 C   0  0  0  0  0  0  0  0  0  0  0  0
    3.8792   -0.6623    0.0000 C   0  0  0  0  0  0  0  0  0  0  0  0
    4.7452   -1.1623    0.0000 C   0  0  0  0  0  0  0  0  0  0  0  0
    4.7452   -2.1623    0.0000 C   0  0  0  0  0  0  0  0  0  0  0  0
    3.8792   -2.6623    0.0000 C   0  0  0  0  0  0  0  0  0  0  0  0
    3.0132   -2.1623    0.0000 C   0  0  0  0  0  0  0  0  0  0  0  0
    1.3209   -1.2256    0.0000 C   0  0  0  0  0  0  0  0  0  0  0  0
    1.5434   -2.2006    0.0000 C   0  0  0  0  0  0  0  0  0  0  0  0
    0.8104   -2.8807    0.0000 C   0  0  0  0  0  0  0  0  0  0  0  0
    1.0329   -3.8557    0.0000 Cl  0  0  0  0  0  0  0  0  0  0  0  0
   -0.1452   -2.5860    0.0000 C   0  0  0  0  0  0  0  0  0  0  0  0
   -0.3677   -1.6110    0.0000 C   0  0  0  0  0  0  0  0  0  0  0  0
    0.3653   -0.9309    0.0000 C   0  0  0  0  0  0  0  0  0  0  0  0
    0.0000   -0.0000    0.0000 N   0  0  0  0  0  0  0  0  0  0  0  0
   -0.9972    0.0747    0.0000 C   0  0  0  0  0  0  0  0  0  0  0  0
   -1.4311    0.9757    0.0000 C   0  0  0  0  0  0  0  0  0  0  0  0
   -1.3564    1.9729    0.0000 F   0  0  0  0  0  0  0  0  0  0  0  0
   -0.5301    1.4096    0.0000 F   0  0  0  0  0  0  0  0  0  0  0  0
   -2.4283    1.0504    0.0000 F   0  0  0  0  0  0  0  0  0  0  0  0
  1  2  2  0  0  0  0
  2 19  1  0  0  0  0
  2  3  1  0  0  0  0
  3  4  1  0  0  0  0
  4  5  2  0  0  0  0
  5  6  1  0  0  0  0
  5 12  1  0  0  0  0
  6 11  1  0  0  0  0
  6  7  2  0  0  0  0
  7  8  1  0  0  0  0
  8  9  2  0  0  0  0
  9 10  1  0  0  0  0
 10 11  2  0  0  0  0
 12 18  1  0  0  0  0
 12 13  2  0  0  0  0
 13 14  1  0  0  0  0
 14 15  1  0  0  0  0
 14 16  2  0  0  0  0
 16 17  1  0  0  0  0
 17 18  2  0  0  0  0
 18 19  1  0  0  0  0
 19 20  1  0  0  0  0
 20 21  1  0  0  0  0
 21 22  1  0  0  0  0
 21 23  1  0  0  0  0
 21 24  1  0  0  0  0
M  END
$$$$

 OpenBabel10082008492D

 20 21  0  0  1  0  0  0  0  0999 V2000
    3.4641    0.7321    0.0000 C   0  0  0  0  0  0  0  0  0  0  0  0
    3.4641    1.7321    0.0000 N   0  0  0  0  0  0  0  0  0  0  0  0
    4.3301    2.2321    0.0000 C   0  0  0  0  0  0  0  0  0  0  0  0
    2.5981    2.2321    0.0000 C   0  0  0  0  0  0  0  0  0  0  0  0
    1.7321    1.7321    0.0000 C   0  0  0  0  0  0  0  0  0  0  0  0
    0.8660    2.2321    0.0000 O   0  0  0  0  0  0  0  0  0  0  0  0
   -0.0000    1.7321    0.0000 C   0  0  3  0  0  0  0  0  0  0  0  0
   -0.5000    2.5981    0.0000 C   0  0  0  0  0  0  0  0  0  0  0  0
   -0.8660    1.2321    0.0000 C   0  0  0  0  0  0  0  0  0  0  0  0
   -0.8660    0.2321    0.0000 C   0  0  0  0  0  0  0  0  0  0  0  0
   -1.7321   -0.2679    0.0000 C   0  0  0  0  0  0  0  0  0  0  0  0
   -2.5981    0.2321    0.0000 C   0  0  0  0  0  0  0  0  0  0  0  0
   -2.5981    1.2321    0.0000 C   0  0  0  0  0  0  0  0  0  0  0  0
   -1.7321    1.7321    0.0000 C   0  0  0  0  0  0  0  0  0  0  0  0
    0.5000    0.8660    0.0000 C   0  0  0  0  0  0  0  0  0  0  0  0
    1.5000    0.8660    0.0000 C   0  0  0  0  0  0  0  0  0  0  0  0
    2.0000    0.0000    0.0000 C   0  0  0  0  0  0  0  0  0  0  0  0
    1.5000   -0.8660    0.0000 C   0  0  0  0  0  0  0  0  0  0  0  0
    0.5000   -0.8660    0.0000 C   0  0  0  0  0  0  0  0  0  0  0  0
   -0.0000   -0.0000    0.0000 N   0  0  0  0  0  0  0  0  0  0  0  0
  1  2  1  0  0  0  0
  2  3  1  0  0  0  0
  2  4  1  0  0  0  0
  4  5  1  0  0  0  0
  5  6  1  0  0  0  0
  6  7  1  0  0  0  0
  7  8  1  0  0  0  0
  7  9  1  0  0  0  0
  7 15  1  0  0  0  0
  9 14  1  0  0  0  0
  9 10  2  0  0  0  0
 10 11  1  0  0  0  0
 11 12  2  0  0  0  0
 12 13  1  0  0  0  0
 13 14  2  0  0  0  0
 15 20  1  0  0  0  0
 15 16  2  0  0  0  0
 16 17  1  0  0  0  0
 17 18  2  0  0  0  0
 18 19  1  0  0  0  0
 19 20  2  0  0  0  0
M  END
$$$$

 OpenBabel10082008492D

 23 25  0  0  1  0  0  0  0  0999 V2000
   -1.9975   -2.1479    0.0000 C   0  0  0  0  0  0  0  0  0  0  0  0
   -1.0667   -2.5133    0.0000 C   0  0  0  0  0  0  0  0  0  0  0  0
   -0.9176   -3.5021    0.0000 O   0  0  0  0  0  0  0  0  0  0  0  0
   -0.2848   -1.8898    0.0000 O   0  0  0  0  0  0  0  0  0  0  0  0
   -0.4339   -0.9010    0.0000 C   0  0  1  0  0  0  0  0  0  0  0  0
    0.4970   -1.2663    0.0000 H   0  0  0  0  0  0  0  0  0  0  0  0
   -1.4088   -1.1235    0.0000 C   0  0  0  0  0  0  0  0  0  0  0  0
   -2.1906   -0.5000    0.0000 C   0  0  0  0  0  0  0  0  0  0  0  0
   -3.0567   -1.0000    0.0000 C   0  0  0  0  0  0  0  0  0  0  0  0
   -3.9227   -0.5000    0.0000 C   0  0  0  0  0  0  0  0  0  0  0  0
   -3.9227    0.5000    0.0000 C   0  0  0  0  0  0  0  0  0  0  0  0
   -3.0567    1.0000    0.0000 C   0  0  0  0  0  0  0  0  0  0  0  0
   -2.1906    0.5000    0.0000 C   0  0  0  0  0  0  0  0  0  0  0  0
   -1.4088    1.1235    0.0000 N   0  0  0  0  0  0  0  0  0  0  0  0
   -1.6313    2.0984    0.0000 C   0  0  0  0  0  0  0  0  0  0  0  0
   -0.8983    2.7786    0.0000 N   0  0  0  0  0  0  0  0  0  0  0  0
   -2.5869    2.3932    0.0000 O   0  0  0  0  0  0  0  0  0  0  0  0
   -0.4339    0.9010    0.0000 C   0  0  0  0  0  0  0  0  0  0  0  0
    0.1294    1.7272    0.0000 C   0  0  0  0  0  0  0  0  0  0  0  0
    1.1266    1.6525    0.0000 C   0  0  0  0  0  0  0  0  0  0  0  0
    1.5605    0.7515    0.0000 C   0  0  0  0  0  0  0  0  0  0  0  0
    0.9972   -0.0747    0.0000 C   0  0  0  0  0  0  0  0  0  0  0  0
    0.0000    0.0000    0.0000 C   0  0  0  0  0  0  0  0  0  0  0  0
  1  2  1  0  0  0  0
  2  3  2  0  0  0  0
  2  4  1  0  0  0  0
  4  5  1  0  0  0  0
  5  6  1  6  0  0  0
  5 23  1  0  0  0  0
  5  7  1  0  0  0  0
  7  8  1  0  0  0  0
  8 13  1  0  0  0  0
  8  9  2  0  0  0  0
  9 10  1  0  0  0  0
 10 11  2  0  0  0  0
 11 12  1  0  0  0  0
 12 13  2  0  0  0  0
 13 14  1  0  0  0  0
 14 15  1  0  0  0  0
 14 18  1  0  0  0  0
 15 16  1  0  0  0  0
 15 17  2  0  0  0  0
 18 23  1  0  0  0  0
 18 19  2  0  0  0  0
 19 20  1  0  0  0  0
 20 21  2  0  0  0  0
 21 22  1  0  0  0  0
 22 23  2  0  0  0  0
M  END
$$$$

 OpenBabel10082008492D

 27 26  0  0  0  0  0  0  0  0999 V2000
  -11.5000    6.7942    0.0000 C   0  0  0  0  0  0  0  0  0  0  0  0
  -12.0000    5.9282    0.0000 C   0  0  0  0  0  0  0  0  0  0  0  0
  -11.5000    5.0622    0.0000 C   0  0  0  0  0  0  0  0  0  0  0  0
  -10.5000    5.0622    0.0000 C   0  0  0  0  0  0  0  0  0  0  0  0
  -10.0000    4.1962    0.0000 C   0  0  0  0  0  0  0  0  0  0  0  0
   -9.0000    4.1962    0.0000 C   0  0  0  0  0  0  0  0  0  0  0  0
   -8.5000    3.3301    0.0000 C   0  0  0  0  0  0  0  0  0  0  0  0
   -7.5000    3.3301    0.0000 C   0  0  0  0  0  0  0  0  0  0  0  0
   -7.0000    2.4641    0.0000 C   0  0  0  0  0  0  0  0  0  0  0  0
   -6.0000    2.4641    0.0000 C   0  0  0  0  0  0  0  0  0  0  0  0
   -5.5000    1.5981    0.0000 C   0  0  0  0  0  0  0  0  0  0  0  0
   -4.5000    1.5981    0.0000 C   0  0  0  0  0  0  0  0  0  0  0  0
   -4.0000    0.7321    0.0000 C   0  0  0  0  0  0  0  0  0  0  0  0
   -3.0000    0.7321    0.0000 C   0  0  0  0  0  0  0  0  0  0  0  0
   -2.5000   -0.1340    0.0000 C   0  0  0  0  0  0  0  0  0  0  0  0
   -1.5000   -0.1340    0.0000 C   0  0  0  0  0  0  0  0  0  0  0  0
   -1.0000   -1.0000    0.0000 O   0  0  0  0  0  0  0  0  0  0  0  0
   -0.0000   -1.0000    0.0000 P   0  0  3  0  0  0  0  0  0  0  0  0
   -0.0000   -2.0000    0.0000 O   0  0  0  0  0  0  0  0  0  0  0  0
    1.0000   -1.0000    0.0000 O   0  5  0  0  0  0  0  0  0  0  0  0
    0.0000   -0.0000    0.0000 O   0  0  0  0  0  0  0  0  0  0  0  0
    0.8660    0.5000    0.0000 C   0  0  0  0  0  0  0  0  0  0  0  0
    1.7321   -0.0000    0.0000 C   0  0  0  0  0  0  0  0  0  0  0  0
    2.5981    0.5000    0.0000 N   0  3  0  0  0  0  0  0  0  0  0  0
    3.0981   -0.3660    0.0000 C   0  0  0  0  0  0  0  0  0  0  0  0
    3.4641    1.0000    0.0000 C   0  0  0  0  0  0  0  0  0  0  0  0
    2.0981    1.3660    0.0000 C   0  0  0  0  0  0  0  0  0  0  0  0
  1  2  1  0  0  0  0
  2  3  1  0  0  0  0
  3  4  1  0  0  0  0
  4  5  1  0  0  0  0
  5  6  1  0  0  0  0
  6  7  1  0  0  0  0
  7  8  1  0  0  0  0
  8  9  1  0  0  0  0
  9 10  1  0  0  0  0
 10 11  1  0  0  0  0
 11 12  1  0  0  0  0
 12 13  1  0  0  0  0
 13 14  1  0  0  0  0
 14 15  1  0  0  0  0
 15 16  1  0  0  0  0
 16 17  1  0  0  0  0
 17 18  1  0  0  0  0
 18 19  2  0  0  0  0
 18 20  1  0  0  0  0
 18 21  1  0  0  0  0
 21 22  1  0  0  0  0
 22 23  1  0  0  0  0
 23 24  1  0  0  0  0
 24 25  1  0  0  0  0
 24 26  1  0  0  0  0
 24 27  1  0  0  0  0
M  CHG  2  20  -1  24   1
M  END
$$$$

 OpenBabel10082008492D

 19 19  0  0  0  0  0  0  0  0999 V2000
   -2.5981   -1.5000    0.0000 C   0  0  0  0  0  0  0  0  0  0  0  0
   -1.7321   -2.0000    0.0000 C   0  0  0  0  0  0  0  0  0  0  0  0
   -1.7321   -3.0000    0.0000 C   0  0  0  0  0  0  0  0  0  0  0  0
   -2.5981   -3.5000    0.0000 C   0  0  0  0  0  0  0  0  0  0  0  0
   -0.8660   -1.5000    0.0000 C   0  0  0  0  0  0  0  0  0  0  0  0
   -0.0000   -2.0000    0.0000 O   0  0  0  0  0  0  0  0  0  0  0  0
   -0.8660   -0.5000    0.0000 C   0  0  0  0  0  0  0  0  0  0  0  0
   -1.7321   -0.0000    0.0000 C   0  0  0  0  0  0  0  0  0  0  0  0
   -1.7321    1.0000    0.0000 C   0  0  0  0  0  0  0  0  0  0  0  0
   -0.8660    1.5000    0.0000 C   0  0  0  0  0  0  0  0  0  0  0  0
   -0.8660    2.5000    0.0000 O   0  0  0  0  0  0  0  0  0  0  0  0
    0.0000    3.0000    0.0000 C   0  0  0  0  0  0  0  0  0  0  0  0
    0.0000    4.0000    0.0000 C   0  0  0  0  0  0  0  0  0  0  0  0
    0.8660    4.5000    0.0000 O   0  0  0  0  0  0  0  0  0  0  0  0
   -0.8660    4.5000    0.0000 O   0  0  0  0  0  0  0  0  0  0  0  0
   -0.0000    1.0000    0.0000 C   0  0  0  0  0  0  0  0  0  0  0  0
    0.8660    1.5000    0.0000 Cl  0  0  0  0  0  0  0  0  0  0  0  0
    0.0000   -0.0000    0.0000 C   0  0  0  0  0  0  0  0  0  0  0  0
    0.8660   -0.5000    0.0000 Cl  0  0  0  0  0  0  0  0  0  0  0  0
  1  2  2  0  0  0  0
  2  3  1  0  0  0  0
  2  5  1  0  0  0  0
  3  4  1  0  0  0  0
  5  6  2  0  0  0  0
  5  7  1  0  0  0  0
  7 18  1  0  0  0  0
  7  8  2  0  0  0  0
  8  9  1  0  0  0  0
  9 10  2  0  0  0  0
 10 11  1  0  0  0  0
 10 16  1  0  0  0  0
 11 12  1  0  0  0  0
 12 13  1  0  0  0  0
 13 14  2  0  0  0  0
 13 15  1  0  0  0  0
 16 17  1  0  0  0  0
 16 18  2  0  0  0  0
 18 19  1  0  0  0  0
M  END
$$$$

 OpenBabel10082008492D

 42 46  0  0  0  0  0  0  0  0999 V2000
   -2.5882    3.1389    0.0000 C   0  0  0  0  0  0  0  0  0  0  0  0
   -1.6372    3.4479    0.0000 C   0  0  0  0  0  0  0  0  0  0  0  0
   -0.8940    2.7788    0.0000 C   0  0  0  0  0  0  0  0  0  0  0  0
    0.0570    3.0878    0.0000 C   0  0  0  0  0  0  0  0  0  0  0  0
    0.3660    4.0388    0.0000 N   0  0  0  0  0  0  0  0  0  0  0  0
    1.3660    4.0388    0.0000 C   0  0  0  0  0  0  0  0  0  0  0  0
    1.9538    4.8479    0.0000 C   0  0  0  0  0  0  0  0  0  0  0  0
    2.0583    5.8424    0.0000 C   0  0  0  0  0  0  0  0  0  0  0  0
    1.1448    5.4356    0.0000 C   0  0  0  0  0  0  0  0  0  0  0  0
    2.9483    4.7433    0.0000 O   0  0  0  0  0  0  0  0  0  0  0  0
    1.6750    3.0878    0.0000 C   0  0  0  0  0  0  0  0  0  0  0  0
    2.6261    2.7788    0.0000 C   0  0  0  0  0  0  0  0  0  0  0  0
    3.3692    3.4479    0.0000 O   0  0  0  0  0  0  0  0  0  0  0  0
    2.8340    1.8006    0.0000 O   0  0  0  0  0  0  0  0  0  0  0  0
    3.7851    1.4916    0.0000 C   0  0  0  0  0  0  0  0  0  0  0  0
    4.5282    2.1607    0.0000 C   0  0  0  0  0  0  0  0  0  0  0  0
    4.4237    3.1553    0.0000 O   0  0  0  0  0  0  0  0  0  0  0  0
    5.3372    3.5620    0.0000 C   0  0  0  0  0  0  0  0  0  0  0  0
    5.5451    4.5401    0.0000 O   0  0  0  0  0  0  0  0  0  0  0  0
    6.0064    2.8188    0.0000 O   0  0  0  0  0  0  0  0  0  0  0  0
    5.5064    1.9528    0.0000 C   0  0  0  0  0  0  0  0  0  0  0  0
    5.9131    1.0393    0.0000 C   0  0  0  0  0  0  0  0  0  0  0  0
    0.8660    2.5000    0.0000 N   0  0  0  0  0  0  0  0  0  0  0  0
    0.8660    1.5000    0.0000 C   0  0  0  0  0  0  0  0  0  0  0  0
    0.0000    1.0000    0.0000 C   0  0  0  0  0  0  0  0  0  0  0  0
   -0.8660    1.5000    0.0000 C   0  0  0  0  0  0  0  0  0  0  0  0
   -1.7321    1.0000    0.0000 C   0  0  0  0  0  0  0  0  0  0  0  0
   -1.7321   -0.0000    0.0000 C   0  0  0  0  0  0  0  0  0  0  0  0
   -2.5981   -0.5000    0.0000 C   0  0  0  0  0  0  0  0  0  0  0  0
   -3.4641    0.0000    0.0000 C   0  0  0  0  0  0  0  0  0  0  0  0
   -4.3301   -0.5000    0.0000 C   0  0  0  0  0  0  0  0  0  0  0  0
   -4.3301   -1.5000    0.0000 C   0  0  0  0  0  0  0  0  0  0  0  0
   -3.4641   -2.0000    0.0000 C   0  0  0  0  0  0  0  0  0  0  0  0
   -2.5981   -1.5000    0.0000 C   0  0  0  0  0  0  0  0  0  0  0  0
   -1.7321   -2.0000    0.0000 C   0  0  0  0  0  0  0  0  0  0  0  0
   -0.8185   -1.5933    0.0000 N   0  0  0  0  0  0  0  0  0  0  0  0
   -0.1494   -2.3364    0.0000 N   0  0  0  0  0  0  0  0  0  0  0  0
   -0.6494   -3.2024    0.0000 N   0  0  0  0  0  0  0  0  0  0  0  0
   -1.6275   -2.9945    0.0000 N   0  0  0  0  0  0  0  0  0  0  0  0
   -2.3707   -3.6637    0.0000 H   0  0  0  0  0  0  0  0  0  0  0  0
   -0.8660   -0.5000    0.0000 C   0  0  0  0  0  0  0  0  0  0  0  0
    0.0000    0.0000    0.0000 C   0  0  0  0  0  0  0  0  0  0  0  0
  1  2  1  0  0  0  0
  2  3  1  0  0  0  0
  3  4  1  0  0  0  0
  4 23  1  0  0  0  0
  4  5  2  0  0  0  0
  5  6  1  0  0  0  0
  6  7  1  0  0  0  0
  6 11  2  0  0  0  0
  7  8  1  0  0  0  0
  7  9  1  0  0  0  0
  7 10  1  0  0  0  0
 11 12  1  0  0  0  0
 11 23  1  0  0  0  0
 12 13  2  0  0  0  0
 12 14  1  0  0  0  0
 14 15  1  0  0  0  0
 15 16  1  0  0  0  0
 16 21  2  0  0  0  0
 16 17  1  0  0  0  0
 17 18  1  0  0  0  0
 18 19  2  0  0  0  0
 18 20  1  0  0  0  0
 20 21  1  0  0  0  0
 21 22  1  0  0  0  0
 23 24  1  0  0  0  0
 24 25  1  0  0  0  0
 25 42  1  0  0  0  0
 25 26  2  0  0  0  0
 26 27  1  0  0  0  0
 27 28  2  0  0  0  0
 28 29  1  0  0  0  0
 28 41  1  0  0  0  0
 29 34  1  0  0  0  0
 29 30  2  0  0  0  0
 30 31  1  0  0  0  0
 31 32  2  0  0  0  0
 32 33  1  0  0  0  0
 33 34  2  0  0  0  0
 34 35  1  0  0  0  0
 35 39  1  0  0  0  0
 35 36  2  0  0  0  0
 36 37  1  0  0  0  0
 37 38  2  0  0  0  0
 38 39  1  0  0  0  0
 39 40  1  0  0  0  0
 41 42  2  0  0  0  0
M  END
$$$$

 OpenBabel10082008492D

 18 19  0  0  1  0  0  0  0  0999 V2000
   -1.6454   -1.9000    0.0000 C   0  0  0  0  0  0  0  0  0  0  0  0
   -1.6454   -2.8500    0.0000 C   0  0  0  0  0  0  0  0  0  0  0  0
   -0.8227   -3.3250    0.0000 N   0  0  0  0  0  0  0  0  0  0  0  0
   -0.8227   -4.2750    0.0000 C   0  0  0  0  0  0  0  0  0  0  0  0
    0.0000   -4.7500    0.0000 C   0  0  0  0  0  0  0  0  0  0  0  0
    0.0000   -2.8500    0.0000 C   0  0  0  0  0  0  0  0  0  0  0  0
    0.8227   -3.3250    0.0000 O   0  0  0  0  0  0  0  0  0  0  0  0
    0.0000   -0.9500    0.0000 C   0  0  3  0  0  0  0  0  0  0  0  0
    0.8227   -1.4250    0.0000 C   0  0  0  0  0  0  0  0  0  0  0  0
    1.6454   -0.9500    0.0000 C   0  0  0  0  0  0  0  0  0  0  0  0
    2.4682   -1.4250    0.0000 C   0  0  0  0  0  0  0  0  0  0  0  0
    2.4682   -2.3750    0.0000 C   0  0  0  0  0  0  0  0  0  0  0  0
    1.6454   -2.8500    0.0000 C   0  0  0  0  0  0  0  0  0  0  0  0
    0.8227   -2.3750    0.0000 C   0  0  0  0  0  0  0  0  0  0  0  0
   -0.8227   -0.4750    0.0000 C   0  0  0  0  0  0  0  0  0  0  0  0
    0.0000   -0.0000    0.0000 C   0  0  3  0  0  0  0  0  0  0  0  0
    0.4750    0.8227    0.0000 C   0  0  0  0  0  0  0  0  0  0  0  0
   -0.0000    1.6454    0.0000 N   0  0  0  0  0  0  0  0  0  0  0  0
  1  2  1  0  0  0  0
  2  3  1  0  0  0  0
  3  4  1  0  0  0  0
  3  6  1  0  0  0  0
  4  5  1  0  0  0  0
  6  7  2  0  0  0  0
  6  8  1  0  0  0  0
  8 16  1  0  0  0  0
  8  9  1  0  0  0  0
  8 15  1  0  0  0  0
  9 14  1  0  0  0  0
  9 10  2  0  0  0  0
 10 11  1  0  0  0  0
 11 12  2  0  0  0  0
 12 13  1  0  0  0  0
 13 14  2  0  0  0  0
 15 16  1  0  0  0  0
 16 17  1  0  0  0  0
 17 18  1  0  0  0  0
M  END
$$$$

 OpenBabel10082008492D

 24 26  0  0  1  0  0  0  0  0999 V2000
    0.2782    4.3090    0.0000 C   0  0  0  0  0  0  0  0  0  0  0  0
   -0.5878    3.8090    0.0000 N   0  0  0  0  0  0  0  0  0  0  0  0
   -1.4538    4.3090    0.0000 C   0  0  0  0  0  0  0  0  0  0  0  0
   -0.5878    2.8090    0.0000 C   0  0  0  0  0  0  0  0  0  0  0  0
   -1.4538    2.3090    0.0000 C   0  0  0  0  0  0  0  0  0  0  0  0
   -1.4538    1.3090    0.0000 C   0  0  0  0  0  0  0  0  0  0  0  0
   -0.5878    0.8090    0.0000 C   0  0  3  0  0  0  0  0  0  0  0  0
   -1.4538    0.3090    0.0000 C   0  0  0  0  0  0  0  0  0  0  0  0
   -1.4538   -0.6910    0.0000 C   0  0  0  0  0  0  0  0  0  0  0  0
   -2.3198   -1.1910    0.0000 C   0  0  0  0  0  0  0  0  0  0  0  0
   -3.1859   -0.6910    0.0000 C   0  0  0  0  0  0  0  0  0  0  0  0
   -4.0519   -1.1910    0.0000 F   0  0  0  0  0  0  0  0  0  0  0  0
   -3.1859    0.3090    0.0000 C   0  0  0  0  0  0  0  0  0  0  0  0
   -2.3198    0.8090    0.0000 C   0  0  0  0  0  0  0  0  0  0  0  0
   -0.0000    1.6180    0.0000 O   0  0  0  0  0  0  0  0  0  0  0  0
    0.9511    1.3090    0.0000 C   0  0  0  0  0  0  0  0  0  0  0  0
    0.9511    0.3090    0.0000 C   0  0  0  0  0  0  0  0  0  0  0  0
    1.6942   -0.3601    0.0000 C   0  0  0  0  0  0  0  0  0  0  0  0
    1.4863   -1.3383    0.0000 C   0  0  0  0  0  0  0  0  0  0  0  0
    2.2294   -2.0074    0.0000 C   0  0  0  0  0  0  0  0  0  0  0  0
    2.9726   -2.6765    0.0000 N   0  0  0  0  0  0  0  0  0  0  0  0
    0.5352   -1.6473    0.0000 C   0  0  0  0  0  0  0  0  0  0  0  0
   -0.2079   -0.9781    0.0000 C   0  0  0  0  0  0  0  0  0  0  0  0
    0.0000   -0.0000    0.0000 C   0  0  0  0  0  0  0  0  0  0  0  0
  1  2  1  0  0  0  0
  2  3  1  0  0  0  0
  2  4  1  0  0  0  0
  4  5  1  0  0  0  0
  5  6  1  0  0  0  0
  6  7  1  0  0  0  0
  7 24  1  0  0  0  0
  7  8  1  0  0  0  0
  7 15  1  0  0  0  0
  8 14  1  0  0  0  0
  8  9  2  0  0  0  0
  9 10  1  0  0  0  0
 10 11  2  0  0  0  0
 11 12  1  0  0  0  0
 11 13  1  0  0  0  0
 13 14  2  0  0  0  0
 15 16  1  0  0  0  0
 16 17  1  0  0  0  0
 17 24  1  0  0  0  0
 17 18  2  0  0  0  0
 18 19  1  0  0  0  0
 19 20  1  0  0  0  0
 19 22  2  0  0  0  0
 20 21  3  0  0  0  0
 22 23  1  0  0  0  0
 23 24  2  0  0  0  0
M  END
$$$$

 OpenBabel10082008492D

 28 31  0  0  1  0  0  0  0  0999 V2000
    1.7321    2.0000    0.0000 C   0  0  0  0  0  0  0  0  0  0  0  0
    0.8660    1.5000    0.0000 O   0  0  0  0  0  0  0  0  0  0  0  0
    0.8660    0.5000    0.0000 C   0  0  0  0  0  0  0  0  0  0  0  0
    1.7321    0.0000    0.0000 C   0  0  0  0  0  0  0  0  0  0  0  0
    1.7321   -1.0000    0.0000 C   0  0  0  0  0  0  0  0  0  0  0  0
    2.5981   -1.5000    0.0000 N   0  0  0  0  0  0  0  0  0  0  0  0
    2.5981   -2.5000    0.0000 C   0  0  0  0  0  0  0  0  0  0  0  0
    3.4641   -3.0000    0.0000 N   0  0  0  0  0  0  0  0  0  0  0  0
    4.3301   -2.5000    0.0000 C   0  0  0  0  0  0  0  0  0  0  0  0
    5.1962   -3.0000    0.0000 C   0  0  0  0  0  0  0  0  0  0  0  0
    5.1962   -4.0000    0.0000 N   0  0  0  0  0  0  0  0  0  0  0  0
    6.0622   -4.5000    0.0000 C   0  0  0  0  0  0  0  0  0  0  0  0
    6.0622   -5.5000    0.0000 O   0  0  0  0  0  0  0  0  0  0  0  0
    6.9282   -4.0000    0.0000 C   0  0  3  0  0  0  0  0  0  0  0  0
    7.0327   -3.0055    0.0000 C   0  0  0  0  0  0  0  0  0  0  0  0
    8.0109   -2.7976    0.0000 C   0  0  0  0  0  0  0  0  0  0  0  0
    8.5109   -3.6636    0.0000 C   0  0  0  0  0  0  0  0  0  0  0  0
    7.8417   -4.4067    0.0000 O   0  0  0  0  0  0  0  0  0  0  0  0
    4.3301   -4.5000    0.0000 C   0  0  0  0  0  0  0  0  0  0  0  0
    3.4641   -4.0000    0.0000 C   0  0  0  0  0  0  0  0  0  0  0  0
    1.7321   -3.0000    0.0000 N   0  0  0  0  0  0  0  0  0  0  0  0
    0.8660   -2.5000    0.0000 C   0  0  0  0  0  0  0  0  0  0  0  0
    0.0000   -3.0000    0.0000 N   0  0  0  0  0  0  0  0  0  0  0  0
    0.8660   -1.5000    0.0000 C   0  0  0  0  0  0  0  0  0  0  0  0
    0.0000   -1.0000    0.0000 C   0  0  0  0  0  0  0  0  0  0  0  0
    0.0000   -0.0000    0.0000 C   0  0  0  0  0  0  0  0  0  0  0  0
   -0.8660    0.5000    0.0000 O   0  0  0  0  0  0  0  0  0  0  0  0
   -0.8660    1.5000    0.0000 C   0  0  0  0  0  0  0  0  0  0  0  0
  1  2  1  0  0  0  0
  2  3  1  0  0  0  0
  3 26  1  0  0  0  0
  3  4  2  0  0  0  0
  4  5  1  0  0  0  0
  5 24  1  0  0  0  0
  5  6  2  0  0  0  0
  6  7  1  0  0  0  0
  7  8  1  0  0  0  0
  7 21  2  0  0  0  0
  8 20  1  0  0  0  0
  8  9  1  0  0  0  0
  9 10  1  0  0  0  0
 10 11  1  0  0  0  0
 11 12  1  0  0  0  0
 11 19  1  0  0  0  0
 12 13  2  0  0  0  0
 12 14  1  0  0  0  0
 14 18  1  0  0  0  0
 14 15  1  0  0  0  0
 15 16  1  0  0  0  0
 16 17  1  0  0  0  0
 17 18  1  0  0  0  0
 19 20  1  0  0  0  0
 21 22  1  0  0  0  0
 22 23  1  0  0  0  0
 22 24  2  0  0  0  0
 24 25  1  0  0  0  0
 25 26  2  0  0  0  0
 26 27  1  0  0  0  0
 27 28  1  0  0  0  0
M  END
$$$$

 OpenBabel10082008492D

 46 54  0  0  1  0  0  0  0  0999 V2000
   -4.8957   -3.4033    0.0000 C   0  0  0  0  0  0  0  0  0  0  0  0
   -4.1631   -2.7227    0.0000 O   0  0  0  0  0  0  0  0  0  0  0  0
   -4.3862   -1.7479    0.0000 C   0  0  2  0  0  0  0  0  0  0  0  0
   -5.1188   -2.4285    0.0000 H   0  0  0  0  0  0  0  0  0  0  0  0
   -4.8427   -1.3249    0.0000 C   0  0  2  0  0  0  0  0  0  0  0  0
   -5.4657   -2.1071    0.0000 H   0  0  0  0  0  0  0  0  0  0  0  0
   -5.8316   -1.1765    0.0000 N   0  0  0  0  0  0  0  0  0  0  0  0
   -6.1975   -0.2458    0.0000 C   0  0  0  0  0  0  0  0  0  0  0  0
   -6.4546   -1.9587    0.0000 C   0  0  0  0  0  0  0  0  0  0  0  0
   -6.0887   -2.8894    0.0000 O   0  0  0  0  0  0  0  0  0  0  0  0
   -7.4435   -1.8103    0.0000 C   0  0  0  0  0  0  0  0  0  0  0  0
   -7.8095   -0.8797    0.0000 C   0  0  0  0  0  0  0  0  0  0  0  0
   -8.7984   -0.7313    0.0000 C   0  0  0  0  0  0  0  0  0  0  0  0
   -9.4214   -1.5135    0.0000 C   0  0  0  0  0  0  0  0  0  0  0  0
   -9.0554   -2.4441    0.0000 C   0  0  0  0  0  0  0  0  0  0  0  0
   -8.0665   -2.5925    0.0000 C   0  0  0  0  0  0  0  0  0  0  0  0
   -4.7966   -0.7043    0.0000 C   0  0  0  0  0  0  0  0  0  0  0  0
   -4.2826   -0.3533    0.0000 C   0  0  1  0  0  0  0  0  0  0  0  0
   -4.3119    0.6462    0.0000 H   0  0  0  0  0  0  0  0  0  0  0  0
   -4.2963   -1.1100    0.0000 O   0  0  0  0  0  0  0  0  0  0  0  0
   -3.7709   -1.6547    0.0000 C   0  0  1  0  0  0  0  0  0  0  0  0
   -3.1115   -2.4066    0.0000 C   0  0  0  0  0  0  0  0  0  0  0  0
   -3.0142   -1.6684    0.0000 N   0  0  0  0  0  0  0  0  0  0  0  0
   -2.2832   -2.3509    0.0000 C   0  0  0  0  0  0  0  0  0  0  0  0
   -2.3013   -3.3507    0.0000 C   0  0  0  0  0  0  0  0  0  0  0  0
   -1.4444   -3.8662    0.0000 C   0  0  0  0  0  0  0  0  0  0  0  0
   -0.5695   -3.3820    0.0000 C   0  0  0  0  0  0  0  0  0  0  0  0
   -0.5515   -2.3821    0.0000 C   0  0  0  0  0  0  0  0  0  0  0  0
   -1.4083   -1.8666    0.0000 C   0  0  0  0  0  0  0  0  0  0  0  0
   -1.5985   -0.8848    0.0000 C   0  0  0  0  0  0  0  0  0  0  0  0
   -0.9962   -0.0866    0.0000 C   0  0  0  0  0  0  0  0  0  0  0  0
   -1.3864    0.8342    0.0000 C   0  0  0  0  0  0  0  0  0  0  0  0
   -2.3789    0.9567    0.0000 C   0  0  0  0  0  0  0  0  0  0  0  0
   -2.3789    0.1720    0.0000 C   0  0  0  0  0  0  0  0  0  0  0  0
   -1.6994   -0.2203    0.0000 C   0  0  0  0  0  0  0  0  0  0  0  0
   -1.6994   -1.0049    0.0000 C   0  0  0  0  0  0  0  0  0  0  0  0
   -2.3789   -1.3972    0.0000 C   0  0  0  0  0  0  0  0  0  0  0  0
   -3.0584   -1.0049    0.0000 C   0  0  0  0  0  0  0  0  0  0  0  0
   -3.0584   -0.2203    0.0000 C   0  0  0  0  0  0  0  0  0  0  0  0
   -3.7379    0.1720    0.0000 N   0  0  0  0  0  0  0  0  0  0  0  0
   -2.9812    0.1584    0.0000 C   0  0  0  0  0  0  0  0  0  0  0  0
   -2.5910   -0.7624    0.0000 C   0  0  0  0  0  0  0  0  0  0  0  0
   -0.6313    1.4898    0.0000 C   0  0  0  0  0  0  0  0  0  0  0  0
   -0.7179    2.4860    0.0000 O   0  0  0  0  0  0  0  0  0  0  0  0
    0.2255    0.9742    0.0000 N   0  0  0  0  0  0  0  0  0  0  0  0
    0.0000    0.0000    0.0000 C   0  0  0  0  0  0  0  0  0  0  0  0
  1  2  1  0  0  0  0
  2  3  1  0  0  0  0
  3  4  1  1  0  0  0
  3 21  1  0  0  0  0
  3  5  1  0  0  0  0
  5  6  1  1  0  0  0
  5  7  1  0  0  0  0
  5 17  1  0  0  0  0
  7  8  1  0  0  0  0
  7  9  1  0  0  0  0
  9 10  2  0  0  0  0
  9 11  1  0  0  0  0
 11 16  1  0  0  0  0
 11 12  2  0  0  0  0
 12 13  1  0  0  0  0
 13 14  2  0  0  0  0
 14 15  1  0  0  0  0
 15 16  2  0  0  0  0
 17 18  1  0  0  0  0
 18 19  1  1  0  0  0
 18 40  1  0  0  0  0
 18 20  1  0  0  0  0
 20 21  1  0  0  0  0
 21 22  1  1  0  0  0
 21 23  1  0  0  0  0
 23 42  1  0  0  0  0
 23 24  1  0  0  0  0
 24 29  1  0  0  0  0
 24 25  2  0  0  0  0
 25 26  1  0  0  0  0
 26 27  2  0  0  0  0
 27 28  1  0  0  0  0
 28 29  2  0  0  0  0
 29 30  1  0  0  0  0
 30 42  1  0  0  0  0
 30 31  2  0  0  0  0
 31 46  1  0  0  0  0
 31 32  1  0  0  0  0
 32 33  2  0  0  0  0
 32 43  1  0  0  0  0
 33 41  1  0  0  0  0
 33 34  1  0  0  0  0
 34 39  1  0  0  0  0
 34 35  2  0  0  0  0
 35 36  1  0  0  0  0
 36 37  2  0  0  0  0
 37 38  1  0  0  0  0
 38 39  2  0  0  0  0
 39 40  1  0  0  0  0
 40 41  1  0  0  0  0
 41 42  2  0  0  0  0
 43 44  2  0  0  0  0
 43 45  1  0  0  0  0
 45 46  1  0  0  0  0
M  END
$$$$

 OpenBabel10082008492D

 15 15  0  0  1  0  0  0  0  0999 V2000
    2.5981   -2.5000    0.0000 N   0  0  0  0  0  0  0  0  0  0  0  0
    1.7321   -2.0000    0.0000 C   0  0  1  0  0  0  0  0  0  0  0  0
    2.2321   -1.1340    0.0000 H   0  0  0  0  0  0  0  0  0  0  0  0
    0.8660   -1.5000    0.0000 C   0  0  0  0  0  0  0  0  0  0  0  0
    0.8660   -0.5000    0.0000 C   0  0  0  0  0  0  0  0  0  0  0  0
    1.7321   -0.0000    0.0000 C   0  0  0  0  0  0  0  0  0  0  0  0
    1.7321    1.0000    0.0000 C   0  0  0  0  0  0  0  0  0  0  0  0
    0.8660    1.5000    0.0000 C   0  0  0  0  0  0  0  0  0  0  0  0
    0.8660    2.5000    0.0000 O   0  0  0  0  0  0  0  0  0  0  0  0
    0.0000    1.0000    0.0000 C   0  0  0  0  0  0  0  0  0  0  0  0
   -0.8660    1.5000    0.0000 O   0  0  0  0  0  0  0  0  0  0  0  0
   -0.0000   -0.0000    0.0000 C   0  0  0  0  0  0  0  0  0  0  0  0
    1.2321   -2.8660    0.0000 C   0  0  0  0  0  0  0  0  0  0  0  0
    0.2321   -2.8660    0.0000 O   0  0  0  0  0  0  0  0  0  0  0  0
    1.7321   -3.7321    0.0000 O   0  0  0  0  0  0  0  0  0  0  0  0
  1  2  1  0  0  0  0
  2  3  1  1  0  0  0
  2  4  1  0  0  0  0
  2 13  1  0  0  0  0
  4  5  1  0  0  0  0
  5 12  1  0  0  0  0
  5  6  2  0  0  0  0
  6  7  1  0  0  0  0
  7  8  2  0  0  0  0
  8  9  1  0  0  0  0
  8 10  1  0  0  0  0
 10 11  1  0  0  0  0
 10 12  2  0  0  0  0
 13 14  2  0  0  0  0
 13 15  1  0  0  0  0
M  END
$$$$

 OpenBabel10082008492D

 33 37  0  0  1  0  0  0  0  0999 V2000
    1.0475   -1.9067    0.0000 N   0  0  0  0  0  0  0  0  0  0  0  0
    1.9135   -1.4067    0.0000 C   0  0  0  0  0  0  0  0  0  0  0  0
    2.7796   -1.9067    0.0000 O   0  0  0  0  0  0  0  0  0  0  0  0
    1.9135   -0.4067    0.0000 C   0  0  0  0  0  0  0  0  0  0  0  0
    2.9135   -0.4067    0.0000 C   0  0  0  0  0  0  0  0  0  0  0  0
    3.4135    0.4593    0.0000 C   0  0  0  0  0  0  0  0  0  0  0  0
    4.4135    0.4593    0.0000 C   0  0  0  0  0  0  0  0  0  0  0  0
    4.9135   -0.4067    0.0000 C   0  0  0  0  0  0  0  0  0  0  0  0
    4.4135   -1.2728    0.0000 C   0  0  0  0  0  0  0  0  0  0  0  0
    3.4135   -1.2728    0.0000 C   0  0  0  0  0  0  0  0  0  0  0  0
    1.9135    0.5933    0.0000 C   0  0  0  0  0  0  0  0  0  0  0  0
    1.0475    1.0933    0.0000 C   0  0  0  0  0  0  0  0  0  0  0  0
    1.0475    2.0933    0.0000 C   0  0  0  0  0  0  0  0  0  0  0  0
    1.9135    2.5933    0.0000 C   0  0  0  0  0  0  0  0  0  0  0  0
    2.7796    2.0933    0.0000 C   0  0  0  0  0  0  0  0  0  0  0  0
    2.7796    1.0933    0.0000 C   0  0  0  0  0  0  0  0  0  0  0  0
    0.9135   -0.4067    0.0000 C   0  0  2  0  0  0  0  0  0  0  0  0
    1.4135    0.4593    0.0000 H   0  0  0  0  0  0  0  0  0  0  0  0
    0.8090   -1.4013    0.0000 C   0  0  0  0  0  0  0  0  0  0  0  0
   -0.1691   -1.6092    0.0000 C   0  0  0  0  0  0  0  0  0  0  0  0
   -0.6691   -0.7431    0.0000 N   0  0  0  0  0  0  0  0  0  0  0  0
   -1.6637   -0.6386    0.0000 C   0  0  0  0  0  0  0  0  0  0  0  0
   -2.2514   -1.4476    0.0000 C   0  0  0  0  0  0  0  0  0  0  0  0
   -3.2460   -1.3431    0.0000 C   0  0  0  0  0  0  0  0  0  0  0  0
   -3.8337   -2.1521    0.0000 C   0  0  0  0  0  0  0  0  0  0  0  0
   -4.8283   -2.0476    0.0000 C   0  0  0  0  0  0  0  0  0  0  0  0
   -5.2350   -1.1340    0.0000 C   0  0  0  0  0  0  0  0  0  0  0  0
   -4.6472   -0.3250    0.0000 C   0  0  0  0  0  0  0  0  0  0  0  0
   -3.6527   -0.4296    0.0000 C   0  0  0  0  0  0  0  0  0  0  0  0
   -5.2350    0.4840    0.0000 C   0  0  0  0  0  0  0  0  0  0  0  0
   -6.1861    0.1750    0.0000 C   0  0  0  0  0  0  0  0  0  0  0  0
   -6.1861   -0.8250    0.0000 O   0  0  0  0  0  0  0  0  0  0  0  0
   -0.0000   -0.0000    0.0000 C   0  0  0  0  0  0  0  0  0  0  0  0
  1  2  1  0  0  0  0
  2  3  2  0  0  0  0
  2  4  1  0  0  0  0
  4  5  1  0  0  0  0
  4 11  1  0  0  0  0
  4 17  1  0  0  0  0
  5 10  1  0  0  0  0
  5  6  2  0  0  0  0
  6  7  1  0  0  0  0
  7  8  2  0  0  0  0
  8  9  1  0  0  0  0
  9 10  2  0  0  0  0
 11 16  1  0  0  0  0
 11 12  2  0  0  0  0
 12 13  1  0  0  0  0
 13 14  2  0  0  0  0
 14 15  1  0  0  0  0
 15 16  2  0  0  0  0
 17 18  1  1  0  0  0
 17 33  1  0  0  0  0
 17 19  1  0  0  0  0
 19 20  1  0  0  0  0
 20 21  1  0  0  0  0
 21 22  1  0  0  0  0
 21 33  1  0  0  0  0
 22 23  1  0  0  0  0
 23 24  1  0  0  0  0
 24 29  1  0  0  0  0
 24 25  2  0  0  0  0
 25 26  1  0  0  0  0
 26 27  2  0  0  0  0
 27 32  1  0  0  0  0
 27 28  1  0  0  0  0
 28 29  2  0  0  0  0
 28 30  1  0  0  0  0
 30 31  1  0  0  0  0
 31 32  1  0  0  0  0
M  END
$$$$

 OpenBabel10082008492D

 29 31  0  0  0  0  0  0  0  0999 V2000
    4.3301    2.5000    0.0000 C   0  0  0  0  0  0  0  0  0  0  0  0
    3.4641    3.0000    0.0000 C   0  0  0  0  0  0  0  0  0  0  0  0
    2.5981    2.5000    0.0000 N   0  0  0  0  0  0  0  0  0  0  0  0
    1.7321    3.0000    0.0000 C   0  0  0  0  0  0  0  0  0  0  0  0
    0.8660    2.5000    0.0000 C   0  0  0  0  0  0  0  0  0  0  0  0
    2.5981    1.5000    0.0000 C   0  0  0  0  0  0  0  0  0  0  0  0
    1.7321    1.0000    0.0000 C   0  0  0  0  0  0  0  0  0  0  0  0
    1.7321    0.0000    0.0000 O   0  0  0  0  0  0  0  0  0  0  0  0
    0.8660   -0.5000    0.0000 C   0  0  0  0  0  0  0  0  0  0  0  0
    0.8660   -1.5000    0.0000 C   0  0  0  0  0  0  0  0  0  0  0  0
    0.0000   -2.0000    0.0000 C   0  0  0  0  0  0  0  0  0  0  0  0
   -0.8660   -1.5000    0.0000 C   0  0  0  0  0  0  0  0  0  0  0  0
   -1.7321   -2.0000    0.0000 C   0  0  0  0  0  0  0  0  0  0  0  0
   -2.5981   -1.5000    0.0000 C   0  0  0  0  0  0  0  0  0  0  0  0
   -2.5981   -0.5000    0.0000 Cl  0  0  0  0  0  0  0  0  0  0  0  0
   -3.4641   -2.0000    0.0000 C   0  0  0  0  0  0  0  0  0  0  0  0
   -3.4641   -3.0000    0.0000 C   0  0  0  0  0  0  0  0  0  0  0  0
   -4.3301   -3.5000    0.0000 C   0  0  0  0  0  0  0  0  0  0  0  0
   -5.1962   -3.0000    0.0000 C   0  0  0  0  0  0  0  0  0  0  0  0
   -5.1962   -2.0000    0.0000 C   0  0  0  0  0  0  0  0  0  0  0  0
   -4.3301   -1.5000    0.0000 C   0  0  0  0  0  0  0  0  0  0  0  0
   -1.7321   -3.0000    0.0000 C   0  0  0  0  0  0  0  0  0  0  0  0
   -0.8660   -3.5000    0.0000 C   0  0  0  0  0  0  0  0  0  0  0  0
   -0.8660   -4.5000    0.0000 C   0  0  0  0  0  0  0  0  0  0  0  0
   -1.7321   -5.0000    0.0000 C   0  0  0  0  0  0  0  0  0  0  0  0
   -2.5981   -4.5000    0.0000 C   0  0  0  0  0  0  0  0  0  0  0  0
   -2.5981   -3.5000    0.0000 C   0  0  0  0  0  0  0  0  0  0  0  0
   -0.8660   -0.5000    0.0000 C   0  0  0  0  0  0  0  0  0  0  0  0
   -0.0000   -0.0000    0.0000 C   0  0  0  0  0  0  0  0  0  0  0  0
  1  2  1  0  0  0  0
  2  3  1  0  0  0  0
  3  4  1  0  0  0  0
  3  6  1  0  0  0  0
  4  5  1  0  0  0  0
  6  7  1  0  0  0  0
  7  8  1  0  0  0  0
  8  9  1  0  0  0  0
  9 29  1  0  0  0  0
  9 10  2  0  0  0  0
 10 11  1  0  0  0  0
 11 12  2  0  0  0  0
 12 13  1  0  0  0  0
 12 28  1  0  0  0  0
 13 14  2  3  0  0  0
 13 22  1  0  0  0  0
 14 15  1  0  0  0  0
 14 16  1  0  0  0  0
 16 21  1  0  0  0  0
 16 17  2  0  0  0  0
 17 18  1  0  0  0  0
 18 19  2  0  0  0  0
 19 20  1  0  0  0  0
 20 21  2  0  0  0  0
 22 27  1  0  0  0  0
 22 23  2  0  0  0  0
 23 24  1  0  0  0  0
 24 25  2  0  0  0  0
 25 26  1  0  0  0  0
 26 27  2  0  0  0  0
 28 29  2  0  0  0  0
M  END
$$$$

 OpenBabel10082008492D

 16 17  0  0  1  0  0  0  0  0999 V2000
    0.9706   -2.4945    0.0000 C   0  0  0  0  0  0  0  0  0  0  0  0
    0.9706   -1.4945    0.0000 C   0  0  3  0  0  0  0  0  0  0  0  0
    1.8366   -0.9945    0.0000 O   0  0  0  0  0  0  0  0  0  0  0  0
    2.7026   -1.4945    0.0000 C   0  0  0  0  0  0  0  0  0  0  0  0
    2.7026   -2.4945    0.0000 C   0  0  0  0  0  0  0  0  0  0  0  0
    1.8366   -2.9945    0.0000 Cl  0  0  0  0  0  0  0  0  0  0  0  0
    3.5686   -2.9945    0.0000 C   0  0  0  0  0  0  0  0  0  0  0  0
    4.4347   -2.4945    0.0000 C   0  0  0  0  0  0  0  0  0  0  0  0
    4.4347   -1.4945    0.0000 C   0  0  0  0  0  0  0  0  0  0  0  0
    3.5686   -0.9945    0.0000 C   0  0  0  0  0  0  0  0  0  0  0  0
    3.5686    0.0055    0.0000 Cl  0  0  0  0  0  0  0  0  0  0  0  0
    0.1045   -0.9945    0.0000 C   0  0  0  0  0  0  0  0  0  0  0  0
   -0.8090   -1.4013    0.0000 N   0  0  0  0  0  0  0  0  0  0  0  0
   -1.4781   -0.6581    0.0000 C   0  0  0  0  0  0  0  0  0  0  0  0
   -0.9781    0.2079    0.0000 C   0  0  0  0  0  0  0  0  0  0  0  0
    0.0000    0.0000    0.0000 N   0  0  0  0  0  0  0  0  0  0  0  0
  1  2  1  0  0  0  0
  2  3  1  0  0  0  0
  2 12  1  0  0  0  0
  3  4  1  0  0  0  0
  4 10  1  0  0  0  0
  4  5  2  0  0  0  0
  5  6  1  0  0  0  0
  5  7  1  0  0  0  0
  7  8  2  0  0  0  0
  8  9  1  0  0  0  0
  9 10  2  0  0  0  0
 10 11  1  0  0  0  0
 12 16  1  0  0  0  0
 12 13  2  0  0  0  0
 13 14  1  0  0  0  0
 14 15  1  0  0  0  0
 15 16  1  0  0  0  0
M  END
$$$$

 OpenBabel10082008492D

 19 19  0  0  0  0  0  0  0  0999 V2000
   -0.8660   -6.5000    0.0000 O   0  0  0  0  0  0  0  0  0  0  0  0
    0.0000   -6.0000    0.0000 C   0  0  0  0  0  0  0  0  0  0  0  0
    0.8660   -6.5000    0.0000 C   0  0  0  0  0  0  0  0  0  0  0  0
    1.7321   -6.0000    0.0000 C   0  0  0  0  0  0  0  0  0  0  0  0
    1.7321   -5.0000    0.0000 C   0  0  0  0  0  0  0  0  0  0  0  0
    0.8660   -4.5000    0.0000 C   0  0  0  0  0  0  0  0  0  0  0  0
    0.8660   -3.5000    0.0000 C   0  0  0  0  0  0  0  0  0  0  0  0
    0.0000   -3.0000    0.0000 C   0  0  0  0  0  0  0  0  0  0  0  0
    0.0000   -2.0000    0.0000 C   0  0  0  0  0  0  0  0  0  0  0  0
    0.8660   -1.5000    0.0000 O   0  0  0  0  0  0  0  0  0  0  0  0
   -0.8660   -1.5000    0.0000 N   0  0  0  0  0  0  0  0  0  0  0  0
   -0.8660   -0.5000    0.0000 C   0  0  0  0  0  0  0  0  0  0  0  0
   -1.7321   -0.0000    0.0000 C   0  0  0  0  0  0  0  0  0  0  0  0
   -1.7321    1.0000    0.0000 C   0  0  0  0  0  0  0  0  0  0  0  0
   -0.8660    1.5000    0.0000 C   0  0  0  0  0  0  0  0  0  0  0  0
   -0.0000    1.0000    0.0000 C   0  0  0  0  0  0  0  0  0  0  0  0
    0.0000    0.0000    0.0000 C   0  0  0  0  0  0  0  0  0  0  0  0
    0.0000   -5.0000    0.0000 N   0  0  0  0  0  0  0  0  0  0  0  0
   -0.8660   -4.5000    0.0000 O   0  0  0  0  0  0  0  0  0  0  0  0
  1  2  2  0  0  0  0
  2  3  1  0  0  0  0
  2 18  1  0  0  0  0
  3  4  1  0  0  0  0
  4  5  1  0  0  0  0
  5  6  1  0  0  0  0
  6  7  1  0  0  0  0
  7  8  1  0  0  0  0
  8  9  1  0  0  0  0
  9 10  2  0  0  0  0
  9 11  1  0  0  0  0
 11 12  1  0  0  0  0
 12 17  1  0  0  0  0
 12 13  2  0  0  0  0
 13 14  1  0  0  0  0
 14 15  2  0  0  0  0
 15 16  1  0  0  0  0
 16 17  2  0  0  0  0
 18 19  1  0  0  0  0
M  END
$$$$

 OpenBabel10082008492D

 29 32  0  0  0  0  0  0  0  0999 V2000
   -0.8660   -1.5000    0.0000 C   0  0  0  0  0  0  0  0  0  0  0  0
   -0.8660   -0.5000    0.0000 C   0  0  0  0  0  0  0  0  0  0  0  0
   -1.7321   -0.0000    0.0000 C   0  0  0  0  0  0  0  0  0  0  0  0
   -2.5981   -0.5000    0.0000 C   0  0  0  0  0  0  0  0  0  0  0  0
   -2.5981   -1.5000    0.0000 C   0  0  0  0  0  0  0  0  0  0  0  0
   -3.4641   -2.0000    0.0000 C   0  0  0  0  0  0  0  0  0  0  0  0
   -4.3301   -1.5000    0.0000 C   0  0  0  0  0  0  0  0  0  0  0  0
   -4.3301   -0.5000    0.0000 C   0  0  0  0  0  0  0  0  0  0  0  0
   -3.4641   -0.0000    0.0000 C   0  0  0  0  0  0  0  0  0  0  0  0
   -1.7321    1.0000    0.0000 O   0  0  0  0  0  0  0  0  0  0  0  0
   -0.8660    1.5000    0.0000 C   0  0  0  0  0  0  0  0  0  0  0  0
   -0.8660    2.5000    0.0000 C   0  0  0  0  0  0  0  0  0  0  0  0
   -1.7321    3.0000    0.0000 C   0  0  0  0  0  0  0  0  0  0  0  0
   -1.7321    4.0000    0.0000 O   0  0  0  0  0  0  0  0  0  0  0  0
   -2.5981    2.5000    0.0000 O   0  0  0  0  0  0  0  0  0  0  0  0
   -2.5981    1.5000    0.0000 C   0  0  0  0  0  0  0  0  0  0  0  0
   -3.4641    1.0000    0.0000 C   0  0  0  0  0  0  0  0  0  0  0  0
   -4.3301    1.5000    0.0000 N   0  0  0  0  0  0  0  0  0  0  0  0
   -5.1962    1.0000    0.0000 C   0  0  0  0  0  0  0  0  0  0  0  0
   -6.0622    1.5000    0.0000 C   0  0  0  0  0  0  0  0  0  0  0  0
   -6.0622    2.5000    0.0000 C   0  0  0  0  0  0  0  0  0  0  0  0
   -5.1962    3.0000    0.0000 C   0  0  0  0  0  0  0  0  0  0  0  0
   -4.3301    2.5000    0.0000 C   0  0  0  0  0  0  0  0  0  0  0  0
   -0.0000    3.0000    0.0000 C   0  0  0  0  0  0  0  0  0  0  0  0
    0.8660    2.5000    0.0000 C   0  0  0  0  0  0  0  0  0  0  0  0
    0.8660    1.5000    0.0000 C   0  0  0  0  0  0  0  0  0  0  0  0
   -0.0000    1.0000    0.0000 C   0  0  0  0  0  0  0  0  0  0  0  0
    0.0000    0.0000    0.0000 C   0  0  0  0  0  0  0  0  0  0  0  0
    0.8660   -0.5000    0.0000 O   0  0  0  0  0  0  0  0  0  0  0  0
  1  2  1  0  0  0  0
  2 28  1  0  0  0  0
  2  3  2  0  0  0  0
  3  4  1  0  0  0  0
  3 10  1  0  0  0  0
  4  9  1  0  0  0  0
  4  5  2  0  0  0  0
  5  6  1  0  0  0  0
  6  7  2  0  0  0  0
  7  8  1  0  0  0  0
  8  9  2  0  0  0  0
 10 11  1  0  0  0  0
 11 27  1  0  0  0  0
 11 12  2  0  0  0  0
 12 13  1  0  0  0  0
 12 24  1  0  0  0  0
 13 14  2  0  0  0  0
 13 15  1  0  0  0  0
 15 16  1  0  0  0  0
 16 17  1  0  0  0  0
 17 18  1  0  0  0  0
 18 23  1  0  0  0  0
 18 19  1  0  0  0  0
 19 20  1  0  0  0  0
 20 21  1  0  0  0  0
 21 22  1  0  0  0  0
 22 23  1  0  0  0  0
 24 25  2  0  0  0  0
 25 26  1  0  0  0  0
 26 27  2  0  0  0  0
 27 28  1  0  0  0  0
 28 29  2  0  0  0  0
M  END
$$$$

 OpenBabel10082008492D

 30 34  0  0  0  0  0  0  0  0999 V2000
   -3.4641    0.0000    0.0000 C   0  0  0  0  0  0  0  0  0  0  0  0
   -2.5981   -0.5000    0.0000 C   0  0  0  0  0  0  0  0  0  0  0  0
   -1.7321    0.0000    0.0000 N   0  0  0  0  0  0  0  0  0  0  0  0
   -0.8660   -0.5000    0.0000 C   0  0  0  0  0  0  0  0  0  0  0  0
   -0.8660   -1.5000    0.0000 N   0  0  0  0  0  0  0  0  0  0  0  0
   -1.7321   -2.0000    0.0000 C   0  0  0  0  0  0  0  0  0  0  0  0
   -1.7321   -3.0000    0.0000 O   0  0  0  0  0  0  0  0  0  0  0  0
   -2.5981   -1.5000    0.0000 C   0  0  0  0  0  0  0  0  0  0  0  0
   -3.4641   -2.0000    0.0000 C   0  0  0  0  0  0  0  0  0  0  0  0
   -4.3301   -1.5000    0.0000 C   0  0  0  0  0  0  0  0  0  0  0  0
   -5.1962   -2.0000    0.0000 N   0  0  0  0  0  0  0  0  0  0  0  0
   -5.1962   -3.0000    0.0000 C   0  0  0  0  0  0  0  0  0  0  0  0
   -6.0622   -3.5000    0.0000 C   0  0  0  0  0  0  0  0  0  0  0  0
   -6.9282   -3.0000    0.0000 C   0  0  0  0  0  0  0  0  0  0  0  0
   -7.7942   -3.5000    0.0000 C   0  0  0  0  0  0  0  0  0  0  0  0
   -7.8988   -4.4945    0.0000 N   0  0  0  0  0  0  0  0  0  0  0  0
   -8.8769   -4.7024    0.0000 O   0  0  0  0  0  0  0  0  0  0  0  0
   -9.3769   -3.8364    0.0000 C   0  0  0  0  0  0  0  0  0  0  0  0
  -10.3551   -3.6285    0.0000 C   0  0  0  0  0  0  0  0  0  0  0  0
  -10.6641   -2.6774    0.0000 C   0  0  0  0  0  0  0  0  0  0  0  0
  -11.6422   -2.4695    0.0000 F   0  0  0  0  0  0  0  0  0  0  0  0
   -9.9949   -1.9343    0.0000 C   0  0  0  0  0  0  0  0  0  0  0  0
   -9.0168   -2.1422    0.0000 C   0  0  0  0  0  0  0  0  0  0  0  0
   -8.7078   -3.0933    0.0000 C   0  0  0  0  0  0  0  0  0  0  0  0
   -6.9282   -2.0000    0.0000 C   0  0  0  0  0  0  0  0  0  0  0  0
   -6.0622   -1.5000    0.0000 C   0  0  0  0  0  0  0  0  0  0  0  0
   -0.0000   -2.0000    0.0000 C   0  0  0  0  0  0  0  0  0  0  0  0
    0.8660   -1.5000    0.0000 C   0  0  0  0  0  0  0  0  0  0  0  0
    0.8660   -0.5000    0.0000 C   0  0  0  0  0  0  0  0  0  0  0  0
    0.0000   -0.0000    0.0000 C   0  0  0  0  0  0  0  0  0  0  0  0
  1  2  1  0  0  0  0
  2  8  2  0  0  0  0
  2  3  1  0  0  0  0
  3  4  2  0  0  0  0
  4 30  1  0  0  0  0
  4  5  1  0  0  0  0
  5  6  1  0  0  0  0
  5 27  1  0  0  0  0
  6  7  2  0  0  0  0
  6  8  1  0  0  0  0
  8  9  1  0  0  0  0
  9 10  1  0  0  0  0
 10 11  1  0  0  0  0
 11 26  1  0  0  0  0
 11 12  1  0  0  0  0
 12 13  1  0  0  0  0
 13 14  1  0  0  0  0
 14 15  1  0  0  0  0
 14 25  1  0  0  0  0
 15 24  1  0  0  0  0
 15 16  2  0  0  0  0
 16 17  1  0  0  0  0
 17 18  1  0  0  0  0
 18 24  1  0  0  0  0
 18 19  2  0  0  0  0
 19 20  1  0  0  0  0
 20 21  1  0  0  0  0
 20 22  2  0  0  0  0
 22 23  1  0  0  0  0
 23 24  2  0  0  0  0
 25 26  1  0  0  0  0
 27 28  1  0  0  0  0
 28 29  1  0  0  0  0
 29 30  1  0  0  0  0
M  END
$$$$

 OpenBabel10082008492D

 11 10  0  0  1  0  0  0  0  0999 V2000
    4.3301    1.5000    0.0000 N   0  0  0  0  0  0  0  0  0  0  0  0
    3.4641    2.0000    0.0000 C   0  0  0  0  0  0  0  0  0  0  0  0
    3.4641    3.0000    0.0000 O   0  0  0  0  0  0  0  0  0  0  0  0
    2.5981    1.5000    0.0000 C   0  0  0  0  0  0  0  0  0  0  0  0
    2.5981    0.5000    0.0000 C   0  0  0  0  0  0  0  0  0  0  0  0
    1.7321    0.0000    0.0000 C   0  0  2  0  0  0  0  0  0  0  0  0
    1.2321   -0.8660    0.0000 H   0  0  0  0  0  0  0  0  0  0  0  0
    2.2321   -0.8660    0.0000 N   0  0  0  0  0  0  0  0  0  0  0  0
    0.8660    0.5000    0.0000 C   0  0  0  0  0  0  0  0  0  0  0  0
    0.8660    1.5000    0.0000 O   0  0  0  0  0  0  0  0  0  0  0  0
   -0.0000   -0.0000    0.0000 O   0  0  0  0  0  0  0  0  0  0  0  0
  1  2  1  0  0  0  0
  2  3  2  0  0  0  0
  2  4  1  0  0  0  0
  4  5  1  0  0  0  0
  5  6  1  0  0  0  0
  6  7  1  1  0  0  0
  6  8  1  0  0  0  0
  6  9  1  0  0  0  0
  9 10  2  0  0  0  0
  9 11  1  0  0  0  0
M  END
$$$$

 OpenBabel10082008492D

 38 41  0  0  1  0  0  0  0  0999 V2000
   -1.5141   -1.6554    0.0000 C   0  0  0  0  0  0  0  0  0  0  0  0
   -1.2553   -2.6213    0.0000 O   0  0  0  0  0  0  0  0  0  0  0  0
   -0.2894   -2.8801    0.0000 C   0  0  0  0  0  0  0  0  0  0  0  0
    0.4177   -2.1730    0.0000 C   0  0  0  0  0  0  0  0  0  0  0  0
    1.3837   -2.4319    0.0000 O   0  0  0  0  0  0  0  0  0  0  0  0
    0.1589   -1.2071    0.0000 O   0  0  0  0  0  0  0  0  0  0  0  0
    0.8660   -0.5000    0.0000 C   0  0  2  0  0  0  0  0  0  0  0  0
    1.7899   -0.8827    0.0000 C   0  0  0  0  0  0  0  0  0  0  0  0
    2.5833   -0.2739    0.0000 C   0  0  0  0  0  0  0  0  0  0  0  0
    3.5071   -0.6566    0.0000 N   0  0  0  0  0  0  0  0  0  0  0  0
    3.6377   -1.6481    0.0000 C   0  0  0  0  0  0  0  0  0  0  0  0
    4.3005   -0.0478    0.0000 C   0  0  0  0  0  0  0  0  0  0  0  0
    5.2244   -0.4305    0.0000 C   0  0  0  0  0  0  0  0  0  0  0  0
    6.0177    0.1782    0.0000 C   0  0  0  0  0  0  0  0  0  0  0  0
    6.9416   -0.2044    0.0000 C   0  0  0  0  0  0  0  0  0  0  0  0
    7.7942    0.3180    0.0000 N   0  0  0  0  0  0  0  0  0  0  0  0
    8.5546   -0.3314    0.0000 C   0  0  0  0  0  0  0  0  0  0  0  0
    9.5461   -0.2009    0.0000 C   0  0  0  0  0  0  0  0  0  0  0  0
   10.1549   -0.9942    0.0000 C   0  0  0  0  0  0  0  0  0  0  0  0
    9.7722   -1.9181    0.0000 C   0  0  0  0  0  0  0  0  0  0  0  0
    8.7807   -2.0486    0.0000 C   0  0  0  0  0  0  0  0  0  0  0  0
    8.1720   -1.2553    0.0000 C   0  0  0  0  0  0  0  0  0  0  0  0
    7.1750   -1.1768    0.0000 N   0  0  0  0  0  0  0  0  0  0  0  0
    6.5256   -1.9372    0.0000 H   0  0  0  0  0  0  0  0  0  0  0  0
    1.7321    0.0000    0.0000 C   0  0  0  0  0  0  0  0  0  0  0  0
    1.7321    1.0000    0.0000 C   0  0  0  0  0  0  0  0  0  0  0  0
    0.8660    1.5000    0.0000 C   0  0  0  0  0  0  0  0  0  0  0  0
    0.8660    2.5000    0.0000 C   0  0  0  0  0  0  0  0  0  0  0  0
   -0.0000    3.0000    0.0000 C   0  0  0  0  0  0  0  0  0  0  0  0
   -0.0000    4.0000    0.0000 F   0  0  0  0  0  0  0  0  0  0  0  0
   -0.8660    2.5000    0.0000 C   0  0  0  0  0  0  0  0  0  0  0  0
   -0.8660    1.5000    0.0000 C   0  0  0  0  0  0  0  0  0  0  0  0
    0.0000    1.0000    0.0000 C   0  0  0  0  0  0  0  0  0  0  0  0
    0.0000   -0.0000    0.0000 C   0  0  2  0  0  0  0  0  0  0  0  0
   -0.5000   -0.8660    0.0000 H   0  0  0  0  0  0  0  0  0  0  0  0
   -1.0000    0.0000    0.0000 C   0  0  0  0  0  0  0  0  0  0  0  0
   -1.5000   -0.8660    0.0000 C   0  0  0  0  0  0  0  0  0  0  0  0
   -1.5000    0.8660    0.0000 C   0  0  0  0  0  0  0  0  0  0  0  0
  1  2  1  0  0  0  0
  2  3  1  0  0  0  0
  3  4  1  0  0  0  0
  4  5  2  0  0  0  0
  4  6  1  0  0  0  0
  7  6  1  1  0  0  0
  7 34  1  0  0  0  0
  7  8  1  0  0  0  0
  7 25  1  0  0  0  0
  8  9  1  0  0  0  0
  9 10  1  0  0  0  0
 10 11  1  0  0  0  0
 10 12  1  0  0  0  0
 12 13  1  0  0  0  0
 13 14  1  0  0  0  0
 14 15  1  0  0  0  0
 15 23  1  0  0  0  0
 15 16  2  0  0  0  0
 16 17  1  0  0  0  0
 17 22  1  0  0  0  0
 17 18  2  0  0  0  0
 18 19  1  0  0  0  0
 19 20  2  0  0  0  0
 20 21  1  0  0  0  0
 21 22  2  0  0  0  0
 22 23  1  0  0  0  0
 23 24  1  0  0  0  0
 25 26  1  0  0  0  0
 26 27  1  0  0  0  0
 27 33  1  0  0  0  0
 27 28  2  0  0  0  0
 28 29  1  0  0  0  0
 29 30  1  0  0  0  0
 29 31  2  0  0  0  0
 31 32  1  0  0  0  0
 32 33  2  0  0  0  0
 33 34  1  0  0  0  0
 34 35  1  6  0  0  0
 34 36  1  0  0  0  0
 36 37  1  0  0  0  0
 36 38  1  0  0  0  0
M  END
$$$$

 OpenBabel10082008492D

 19 19  0  0  0  0  0  0  0  0999 V2000
    3.4641    3.0000    0.0000 O   0  0  0  0  0  0  0  0  0  0  0  0
    2.5981    3.5000    0.0000 C   0  0  0  0  0  0  0  0  0  0  0  0
    2.5981    4.5000    0.0000 O   0  0  0  0  0  0  0  0  0  0  0  0
    1.7321    3.0000    0.0000 C   0  0  0  0  0  0  0  0  0  0  0  0
    1.7321    2.0000    0.0000 C   0  0  0  0  0  0  0  0  0  0  0  0
    0.8660    1.5000    0.0000 C   0  0  0  0  0  0  0  0  0  0  0  0
    0.8660    0.5000    0.0000 C   0  0  0  0  0  0  0  0  0  0  0  0
    1.7321    0.0000    0.0000 C   0  0  0  0  0  0  0  0  0  0  0  0
    1.7321   -1.0000    0.0000 C   0  0  0  0  0  0  0  0  0  0  0  0
    0.8660   -1.5000    0.0000 C   0  0  0  0  0  0  0  0  0  0  0  0
    0.8660   -2.5000    0.0000 N   0  0  0  0  0  0  0  0  0  0  0  0
    0.0000   -3.0000    0.0000 C   0  0  0  0  0  0  0  0  0  0  0  0
    0.0000   -4.0000    0.0000 C   0  0  0  0  0  0  0  0  0  0  0  0
   -0.8660   -4.5000    0.0000 Cl  0  0  0  0  0  0  0  0  0  0  0  0
    1.7321   -3.0000    0.0000 C   0  0  0  0  0  0  0  0  0  0  0  0
    1.7321   -4.0000    0.0000 C   0  0  0  0  0  0  0  0  0  0  0  0
    0.8660   -4.5000    0.0000 Cl  0  0  0  0  0  0  0  0  0  0  0  0
    0.0000   -1.0000    0.0000 C   0  0  0  0  0  0  0  0  0  0  0  0
   -0.0000   -0.0000    0.0000 C   0  0  0  0  0  0  0  0  0  0  0  0
  1  2  2  0  0  0  0
  2  3  1  0  0  0  0
  2  4  1  0  0  0  0
  4  5  1  0  0  0  0
  5  6  1  0  0  0  0
  6  7  1  0  0  0  0
  7 19  1  0  0  0  0
  7  8  2  0  0  0  0
  8  9  1  0  0  0  0
  9 10  2  0  0  0  0
 10 11  1  0  0  0  0
 10 18  1  0  0  0  0
 11 12  1  0  0  0  0
 11 15  1  0  0  0  0
 12 13  1  0  0  0  0
 13 14  1  0  0  0  0
 15 16  1  0  0  0  0
 16 17  1  0  0  0  0
 18 19  2  0  0  0  0
M  END
$$$$

 OpenBabel10082008492D

 36 39  0  0  1  0  0  0  0  0999 V2000
    1.7321   -1.0000    0.0000 C   0  0  0  0  0  0  0  0  0  0  0  0
    0.8660   -1.5000    0.0000 O   0  0  0  0  0  0  0  0  0  0  0  0
   -0.0000   -1.0000    0.0000 C   0  0  0  0  0  0  0  0  0  0  0  0
   -0.8660   -1.5000    0.0000 C   0  0  0  0  0  0  0  0  0  0  0  0
   -1.7321   -1.0000    0.0000 C   0  0  0  0  0  0  0  0  0  0  0  0
   -1.7321    0.0000    0.0000 C   0  0  0  0  0  0  0  0  0  0  0  0
   -2.5981    0.5000    0.0000 C   0  0  0  0  0  0  0  0  0  0  0  0
   -3.4641    0.0000    0.0000 N   0  0  0  0  0  0  0  0  0  0  0  0
   -4.3301    0.5000    0.0000 C   0  0  0  0  0  0  0  0  0  0  0  0
   -4.3301    1.5000    0.0000 N   0  0  0  0  0  0  0  0  0  0  0  0
   -3.4641    2.0000    0.0000 H   0  0  0  0  0  0  0  0  0  0  0  0
   -5.1962    2.0000    0.0000 C   0  0  0  0  0  0  0  0  0  0  0  0
   -5.1962    3.0000    0.0000 N   0  0  0  0  0  0  0  0  0  0  0  0
   -4.3871    3.5878    0.0000 C   0  0  0  0  0  0  0  0  0  0  0  0
   -4.6962    4.5388    0.0000 C   0  0  0  0  0  0  0  0  0  0  0  0
   -5.6962    4.5388    0.0000 C   0  0  0  0  0  0  0  0  0  0  0  0
   -6.0052    3.5878    0.0000 C   0  0  1  0  0  0  0  0  0  0  0  0
   -6.6743    2.8446    0.0000 H   0  0  0  0  0  0  0  0  0  0  0  0
   -6.9833    3.7957    0.0000 C   0  0  0  0  0  0  0  0  0  0  0  0
   -7.2923    4.7468    0.0000 O   0  0  0  0  0  0  0  0  0  0  0  0
   -6.0622    1.5000    0.0000 N   0  0  0  0  0  0  0  0  0  0  0  0
   -6.0622    0.5000    0.0000 C   0  0  0  0  0  0  0  0  0  0  0  0
   -5.1962    0.0000    0.0000 C   0  0  0  0  0  0  0  0  0  0  0  0
   -5.1962   -1.0000    0.0000 C   0  0  0  0  0  0  0  0  0  0  0  0
   -4.3301   -1.5000    0.0000 O   0  0  0  0  0  0  0  0  0  0  0  0
   -6.0622   -1.5000    0.0000 N   0  0  0  0  0  0  0  0  0  0  0  0
   -6.9282   -1.0000    0.0000 C   0  0  0  0  0  0  0  0  0  0  0  0
   -7.7942   -1.5000    0.0000 C   0  0  0  0  0  0  0  0  0  0  0  0
   -8.6603   -1.0000    0.0000 N   0  0  0  0  0  0  0  0  0  0  0  0
   -9.5263   -1.5000    0.0000 C   0  0  0  0  0  0  0  0  0  0  0  0
   -9.5263   -2.5000    0.0000 C   0  0  0  0  0  0  0  0  0  0  0  0
   -8.6603   -3.0000    0.0000 C   0  0  0  0  0  0  0  0  0  0  0  0
   -7.7942   -2.5000    0.0000 N   0  0  0  0  0  0  0  0  0  0  0  0
   -0.8660    0.5000    0.0000 C   0  0  0  0  0  0  0  0  0  0  0  0
    0.0000   -0.0000    0.0000 C   0  0  0  0  0  0  0  0  0  0  0  0
    0.8660    0.5000    0.0000 Cl  0  0  0  0  0  0  0  0  0  0  0  0
  1  2  1  0  0  0  0
  2  3  1  0  0  0  0
  3 35  1  0  0  0  0
  3  4  2  0  0  0  0
  4  5  1  0  0  0  0
  5  6  2  0  0  0  0
  6  7  1  0  0  0  0
  6 34  1  0  0  0  0
  7  8  1  0  0  0  0
  8  9  2  0  0  0  0
  9 23  1  0  0  0  0
  9 10  1  0  0  0  0
 10 11  1  0  0  0  0
 10 12  1  0  0  0  0
 12 13  1  0  0  0  0
 12 21  2  0  0  0  0
 13 17  1  0  0  0  0
 13 14  1  0  0  0  0
 14 15  1  0  0  0  0
 15 16  1  0  0  0  0
 16 17  1  0  0  0  0
 17 18  1  1  0  0  0
 17 19  1  0  0  0  0
 19 20  1  0  0  0  0
 21 22  1  0  0  0  0
 22 23  2  0  0  0  0
 23 24  1  0  0  0  0
 24 25  2  0  0  0  0
 24 26  1  0  0  0  0
 26 27  1  0  0  0  0
 27 28  1  0  0  0  0
 28 33  1  0  0  0  0
 28 29  2  0  0  0  0
 29 30  1  0  0  0  0
 30 31  2  0  0  0  0
 31 32  1  0  0  0  0
 32 33  2  0  0  0  0
 34 35  2  0  0  0  0
 35 36  1  0  0  0  0
M  END
$$$$

 OpenBabel10082008492D

 22 24  0  0  0  0  0  0  0  0999 V2000
   -4.5747   -0.4266    0.0000 C   0  0  0  0  0  0  0  0  0  0  0  0
   -3.8416   -1.1068    0.0000 N   0  0  0  0  0  0  0  0  0  0  0  0
   -4.0642   -2.0817    0.0000 C   0  0  0  0  0  0  0  0  0  0  0  0
   -2.8861   -0.8120    0.0000 C   0  0  0  0  0  0  0  0  0  0  0  0
   -2.1530   -1.4922    0.0000 C   0  0  0  0  0  0  0  0  0  0  0  0
   -1.1974   -1.1974    0.0000 C   0  0  0  0  0  0  0  0  0  0  0  0
   -0.9749   -0.2225    0.0000 N   0  0  0  0  0  0  0  0  0  0  0  0
   -1.7568    0.4010    0.0000 C   0  0  0  0  0  0  0  0  0  0  0  0
   -2.6228   -0.0990    0.0000 C   0  0  0  0  0  0  0  0  0  0  0  0
   -3.4888    0.4010    0.0000 C   0  0  0  0  0  0  0  0  0  0  0  0
   -3.4888    1.4010    0.0000 C   0  0  0  0  0  0  0  0  0  0  0  0
   -2.6228    1.9010    0.0000 C   0  0  0  0  0  0  0  0  0  0  0  0
   -1.7568    1.4010    0.0000 C   0  0  0  0  0  0  0  0  0  0  0  0
   -0.9749    2.0245    0.0000 C   0  0  0  0  0  0  0  0  0  0  0  0
   -0.0000    1.8019    0.0000 C   0  0  0  0  0  0  0  0  0  0  0  0
    0.4339    0.9010    0.0000 C   0  0  0  0  0  0  0  0  0  0  0  0
    1.4311    0.9757    0.0000 C   0  0  0  0  0  0  0  0  0  0  0  0
    1.9944    0.1495    0.0000 C   0  0  0  0  0  0  0  0  0  0  0  0
    1.5605   -0.7515    0.0000 C   0  0  0  0  0  0  0  0  0  0  0  0
    2.1238   -1.5777    0.0000 Cl  0  0  0  0  0  0  0  0  0  0  0  0
    0.5633   -0.8262    0.0000 C   0  0  0  0  0  0  0  0  0  0  0  0
    0.0000    0.0000    0.0000 C   0  0  0  0  0  0  0  0  0  0  0  0
  1  2  1  0  0  0  0
  2  3  1  0  0  0  0
  2  4  1  0  0  0  0
  4  5  1  0  0  0  0
  5  6  1  0  0  0  0
  6  7  1  0  0  0  0
  7 22  1  0  0  0  0
  7  8  1  0  0  0  0
  8 13  1  0  0  0  0
  8  9  2  0  0  0  0
  9 10  1  0  0  0  0
 10 11  2  0  0  0  0
 11 12  1  0  0  0  0
 12 13  2  0  0  0  0
 13 14  1  0  0  0  0
 14 15  1  0  0  0  0
 15 16  1  0  0  0  0
 16 22  1  0  0  0  0
 16 17  2  0  0  0  0
 17 18  1  0  0  0  0
 18 19  2  0  0  0  0
 19 20  1  0  0  0  0
 19 21  1  0  0  0  0
 21 22  2  0  0  0  0
M  END
$$$$

 OpenBabel10082008492D

 27 29  0  0  0  0  0  0  0  0999 V2000
   -1.0000   -1.0000    0.0000 C   0  0  0  0  0  0  0  0  0  0  0  0
    0.0000   -1.0000    0.0000 S   0  0  0  0  0  0  0  0  0  0  0  0
    0.0000   -2.0000    0.0000 O   0  0  0  0  0  0  0  0  0  0  0  0
    1.0000   -1.0000    0.0000 O   0  0  0  0  0  0  0  0  0  0  0  0
    0.0000    0.0000    0.0000 C   0  0  0  0  0  0  0  0  0  0  0  0
   -0.8660    0.5000    0.0000 C   0  0  0  0  0  0  0  0  0  0  0  0
   -0.8660    1.5000    0.0000 C   0  0  0  0  0  0  0  0  0  0  0  0
    0.0000    2.0000    0.0000 C   0  0  0  0  0  0  0  0  0  0  0  0
    0.0000    3.0000    0.0000 C   0  0  0  0  0  0  0  0  0  0  0  0
    0.8660    3.5000    0.0000 O   0  0  0  0  0  0  0  0  0  0  0  0
   -0.8660    3.5000    0.0000 N   0  0  0  0  0  0  0  0  0  0  0  0
   -1.7321    3.0000    0.0000 C   0  0  0  0  0  0  0  0  0  0  0  0
   -1.7321    2.0000    0.0000 C   0  0  0  0  0  0  0  0  0  0  0  0
   -2.5981    1.5000    0.0000 C   0  0  0  0  0  0  0  0  0  0  0  0
   -3.4641    2.0000    0.0000 C   0  0  0  0  0  0  0  0  0  0  0  0
   -4.3301    1.5000    0.0000 Cl  0  0  0  0  0  0  0  0  0  0  0  0
   -3.4641    3.0000    0.0000 C   0  0  0  0  0  0  0  0  0  0  0  0
   -4.3301    3.5000    0.0000 C   0  0  0  0  0  0  0  0  0  0  0  0
   -5.1962    3.0000    0.0000 C   0  0  0  0  0  0  0  0  0  0  0  0
   -6.0622    3.5000    0.0000 C   0  0  0  0  0  0  0  0  0  0  0  0
   -6.0622    4.5000    0.0000 C   0  0  0  0  0  0  0  0  0  0  0  0
   -5.1962    5.0000    0.0000 C   0  0  0  0  0  0  0  0  0  0  0  0
   -4.3301    4.5000    0.0000 N   0  0  0  0  0  0  0  0  0  0  0  0
   -2.5981    3.5000    0.0000 C   0  0  0  0  0  0  0  0  0  0  0  0
    0.8660    1.5000    0.0000 C   0  0  0  0  0  0  0  0  0  0  0  0
    1.7321    2.0000    0.0000 Cl  0  0  0  0  0  0  0  0  0  0  0  0
    0.8660    0.5000    0.0000 C   0  0  0  0  0  0  0  0  0  0  0  0
  1  2  1  0  0  0  0
  2  3  2  0  0  0  0
  2  4  2  0  0  0  0
  2  5  1  0  0  0  0
  5 27  1  0  0  0  0
  5  6  2  0  0  0  0
  6  7  1  0  0  0  0
  7  8  2  0  0  0  0
  8  9  1  0  0  0  0
  8 25  1  0  0  0  0
  9 10  2  0  0  0  0
  9 11  1  0  0  0  0
 11 12  1  0  0  0  0
 12 24  1  0  0  0  0
 12 13  2  0  0  0  0
 13 14  1  0  0  0  0
 14 15  2  0  0  0  0
 15 16  1  0  0  0  0
 15 17  1  0  0  0  0
 17 18  1  0  0  0  0
 17 24  2  0  0  0  0
 18 23  1  0  0  0  0
 18 19  2  0  0  0  0
 19 20  1  0  0  0  0
 20 21  2  0  0  0  0
 21 22  1  0  0  0  0
 22 23  2  0  0  0  0
 25 26  1  0  0  0  0
 25 27  2  0  0  0  0
M  END
$$$$

 OpenBabel10082008492D

 34 37  0  0  0  0  0  0  0  0999 V2000
   -0.8660    2.5000    0.0000 O   0  0  0  0  0  0  0  0  0  0  0  0
   -0.8660    1.5000    0.0000 C   0  0  0  0  0  0  0  0  0  0  0  0
   -1.7321    1.0000    0.0000 O   0  0  0  0  0  0  0  0  0  0  0  0
    0.0000    1.0000    0.0000 C   0  0  0  0  0  0  0  0  0  0  0  0
    0.8660    1.5000    0.0000 C   0  0  0  0  0  0  0  0  0  0  0  0
    1.7321    1.0000    0.0000 C   0  0  0  0  0  0  0  0  0  0  0  0
    2.5981    1.5000    0.0000 O   0  0  0  0  0  0  0  0  0  0  0  0
    1.7321   -0.0000    0.0000 C   0  0  0  0  0  0  0  0  0  0  0  0
    2.5981   -0.5000    0.0000 C   0  0  0  0  0  0  0  0  0  0  0  0
    3.4641   -0.0000    0.0000 O   0  0  0  0  0  0  0  0  0  0  0  0
    4.3301   -0.5000    0.0000 C   0  0  0  0  0  0  0  0  0  0  0  0
    5.1962   -0.0000    0.0000 C   0  0  0  0  0  0  0  0  0  0  0  0
    5.1962    1.0000    0.0000 O   0  0  0  0  0  0  0  0  0  0  0  0
    6.0622   -0.5000    0.0000 C   0  0  0  0  0  0  0  0  0  0  0  0
    6.9282   -0.0000    0.0000 O   0  0  0  0  0  0  0  0  0  0  0  0
    7.7942   -0.5000    0.0000 C   0  0  0  0  0  0  0  0  0  0  0  0
    8.6603   -0.0000    0.0000 C   0  0  0  0  0  0  0  0  0  0  0  0
    9.5263   -0.5000    0.0000 C   0  0  0  0  0  0  0  0  0  0  0  0
    9.5263   -1.5000    0.0000 C   0  0  0  0  0  0  0  0  0  0  0  0
    8.6603   -2.0000    0.0000 C   0  0  0  0  0  0  0  0  0  0  0  0
    8.6603   -3.0000    0.0000 O   0  0  0  0  0  0  0  0  0  0  0  0
    7.7942   -3.5000    0.0000 C   0  0  0  0  0  0  0  0  0  0  0  0
    7.7942   -4.5000    0.0000 C   0  0  0  0  0  0  0  0  0  0  0  0
    6.9282   -5.0000    0.0000 O   0  0  0  0  0  0  0  0  0  0  0  0
    8.6603   -5.0000    0.0000 O   0  0  0  0  0  0  0  0  0  0  0  0
    6.9282   -3.0000    0.0000 C   0  0  0  0  0  0  0  0  0  0  0  0
    6.9282   -2.0000    0.0000 C   0  0  0  0  0  0  0  0  0  0  0  0
    6.0622   -1.5000    0.0000 O   0  0  0  0  0  0  0  0  0  0  0  0
    7.7942   -1.5000    0.0000 C   0  0  0  0  0  0  0  0  0  0  0  0
    2.5981   -1.5000    0.0000 C   0  0  0  0  0  0  0  0  0  0  0  0
    1.7321   -2.0000    0.0000 C   0  0  0  0  0  0  0  0  0  0  0  0
    0.8660   -1.5000    0.0000 C   0  0  0  0  0  0  0  0  0  0  0  0
    0.8660   -0.5000    0.0000 C   0  0  0  0  0  0  0  0  0  0  0  0
    0.0000   -0.0000    0.0000 O   0  0  0  0  0  0  0  0  0  0  0  0
  1  2  2  0  0  0  0
  2  3  1  0  0  0  0
  2  4  1  0  0  0  0
  4 34  1  0  0  0  0
  4  5  2  0  0  0  0
  5  6  1  0  0  0  0
  6  7  2  0  0  0  0
  6  8  1  0  0  0  0
  8 33  1  0  0  0  0
  8  9  2  0  0  0  0
  9 10  1  0  0  0  0
  9 30  1  0  0  0  0
 10 11  1  0  0  0  0
 11 12  1  0  0  0  0
 12 13  1  0  0  0  0
 12 14  1  0  0  0  0
 14 15  1  0  0  0  0
 15 16  1  0  0  0  0
 16 29  1  0  0  0  0
 16 17  2  0  0  0  0
 17 18  1  0  0  0  0
 18 19  2  0  0  0  0
 19 20  1  0  0  0  0
 20 29  2  0  0  0  0
 20 21  1  0  0  0  0
 21 22  1  0  0  0  0
 22 23  1  0  0  0  0
 22 26  2  0  0  0  0
 23 24  2  0  0  0  0
 23 25  1  0  0  0  0
 26 27  1  0  0  0  0
 27 28  2  0  0  0  0
 27 29  1  0  0  0  0
 30 31  2  0  0  0  0
 31 32  1  0  0  0  0
 32 33  2  0  0  0  0
 33 34  1  0  0  0  0
M  END
$$$$

 OpenBabel10082008492D

 36 38  0  0  1  0  0  0  0  0999 V2000
   -3.6996   -2.8648    0.0000 C   0  0  0  0  0  0  0  0  0  0  0  0
   -2.9755   -2.2128    0.0000 C   0  0  0  0  0  0  0  0  0  0  0  0
   -3.1781   -1.2597    0.0000 O   0  0  0  0  0  0  0  0  0  0  0  0
   -2.4540   -0.6077    0.0000 C   0  0  0  0  0  0  0  0  0  0  0  0
   -1.5274   -0.9088    0.0000 O   0  0  0  0  0  0  0  0  0  0  0  0
   -2.6566    0.3453    0.0000 C   0  0  2  0  0  0  0  0  0  0  0  0
   -3.6097    0.1427    0.0000 H   0  0  0  0  0  0  0  0  0  0  0  0
   -2.8592    1.2984    0.0000 C   0  0  0  0  0  0  0  0  0  0  0  0
   -3.7859    1.5995    0.0000 C   0  0  0  0  0  0  0  0  0  0  0  0
   -4.5100    0.9475    0.0000 C   0  0  0  0  0  0  0  0  0  0  0  0
   -5.4366    1.2486    0.0000 C   0  0  0  0  0  0  0  0  0  0  0  0
   -6.1607    0.5966    0.0000 C   0  0  0  0  0  0  0  0  0  0  0  0
   -5.9581   -0.3564    0.0000 C   0  0  0  0  0  0  0  0  0  0  0  0
   -5.0315   -0.6575    0.0000 C   0  0  0  0  0  0  0  0  0  0  0  0
   -4.3074   -0.0056    0.0000 C   0  0  0  0  0  0  0  0  0  0  0  0
   -1.7036    0.5479    0.0000 N   0  0  0  0  0  0  0  0  0  0  0  0
   -1.4025    1.4746    0.0000 C   0  0  1  0  0  0  0  0  0  0  0  0
   -2.3291    1.7757    0.0000 H   0  0  0  0  0  0  0  0  0  0  0  0
   -1.6050    2.4276    0.0000 C   0  0  0  0  0  0  0  0  0  0  0  0
   -0.4494    1.6772    0.0000 C   0  0  0  0  0  0  0  0  0  0  0  0
    0.1528    3.5305    0.0000 O   0  0  0  0  0  0  0  0  0  0  0  0
    0.2026    0.9531    0.0000 N   0  0  0  0  0  0  0  0  0  0  0  0
    1.1716    1.0549    0.0000 C   0  0  2  0  0  0  0  0  0  0  0  0
    2.0154    1.5421    0.0000 H   0  0  0  0  0  0  0  0  0  0  0  0
    1.1716    2.0293    0.0000 C   0  0  0  0  0  0  0  0  0  0  0  0
    2.0154    2.5165    0.0000 O   0  0  0  0  0  0  0  0  0  0  0  0
    0.3278    2.5165    0.0000 O   0  0  0  0  0  0  0  0  0  0  0  0
    1.5679    0.1648    0.0000 C   0  0  0  0  0  0  0  0  0  0  0  0
    0.8438   -0.4872    0.0000 C   0  0  1  0  0  0  0  0  0  0  0  0
    1.4165   -1.2755    0.0000 H   0  0  0  0  0  0  0  0  0  0  0  0
    0.8438   -1.4615    0.0000 C   0  0  0  0  0  0  0  0  0  0  0  0
    0.0000   -1.9487    0.0000 C   0  0  0  0  0  0  0  0  0  0  0  0
   -0.8438   -1.4615    0.0000 C   0  0  0  0  0  0  0  0  0  0  0  0
   -0.8438   -0.4872    0.0000 C   0  0  0  0  0  0  0  0  0  0  0  0
    0.0000   -0.0000    0.0000 C   0  0  2  0  0  0  0  0  0  0  0  0
   -0.9690    0.1018    0.0000 H   0  0  0  0  0  0  0  0  0  0  0  0
  1  2  1  0  0  0  0
  2  3  1  0  0  0  0
  3  4  1  0  0  0  0
  4  5  2  0  0  0  0
  4  6  1  0  0  0  0
  6  7  1  1  0  0  0
  6  8  1  0  0  0  0
  6 16  1  0  0  0  0
  8  9  1  0  0  0  0
  9 10  1  0  0  0  0
 10 15  1  0  0  0  0
 10 11  2  0  0  0  0
 11 12  1  0  0  0  0
 12 13  2  0  0  0  0
 13 14  1  0  0  0  0
 14 15  2  0  0  0  0
 16 17  1  0  0  0  0
 17 18  1  6  0  0  0
 17 19  1  0  0  0  0
 17 20  1  0  0  0  0
 20 21  2  0  0  0  0
 20 22  1  0  0  0  0
 22 35  1  0  0  0  0
 22 23  1  0  0  0  0
 23 24  1  1  0  0  0
 23 25  1  0  0  0  0
 23 28  1  0  0  0  0
 25 26  2  0  0  0  0
 25 27  1  0  0  0  0
 28 29  1  0  0  0  0
 29 30  1  6  0  0  0
 29 35  1  0  0  0  0
 29 31  1  0  0  0  0
 31 32  1  0  0  0  0
 32 33  1  0  0  0  0
 33 34  1  0  0  0  0
 34 35  1  0  0  0  0
 35 36  1  1  0  0  0
M  END
$$$$

 OpenBabel10082008492D

 23 25  0  0  0  0  0  0  0  0999 V2000
    3.5878   -0.8090    0.0000 C   0  0  0  0  0  0  0  0  0  0  0  0
    3.0878    0.0570    0.0000 O   0  0  0  0  0  0  0  0  0  0  0  0
    2.0878    0.0570    0.0000 C   0  0  0  0  0  0  0  0  0  0  0  0
    1.5878    0.9230    0.0000 O   0  0  0  0  0  0  0  0  0  0  0  0
    1.5878   -0.8090    0.0000 N   0  0  0  0  0  0  0  0  0  0  0  0
    0.5878   -0.8090    0.0000 C   0  0  0  0  0  0  0  0  0  0  0  0
    0.0000   -1.6180    0.0000 N   0  0  0  0  0  0  0  0  0  0  0  0
   -0.9511   -1.3090    0.0000 C   0  0  0  0  0  0  0  0  0  0  0  0
   -1.8171   -1.8090    0.0000 C   0  0  0  0  0  0  0  0  0  0  0  0
   -2.6831   -1.3090    0.0000 C   0  0  0  0  0  0  0  0  0  0  0  0
   -2.6831   -0.3090    0.0000 C   0  0  0  0  0  0  0  0  0  0  0  0
   -3.5491    0.1910    0.0000 C   0  0  0  0  0  0  0  0  0  0  0  0
   -3.5491    1.1910    0.0000 O   0  0  0  0  0  0  0  0  0  0  0  0
   -4.4152   -0.3090    0.0000 C   0  0  0  0  0  0  0  0  0  0  0  0
   -4.4152   -1.3090    0.0000 C   0  0  0  0  0  0  0  0  0  0  0  0
   -5.2812   -1.8090    0.0000 C   0  0  0  0  0  0  0  0  0  0  0  0
   -6.1472   -1.3090    0.0000 C   0  0  0  0  0  0  0  0  0  0  0  0
   -6.1472   -0.3090    0.0000 C   0  0  0  0  0  0  0  0  0  0  0  0
   -5.2812    0.1910    0.0000 C   0  0  0  0  0  0  0  0  0  0  0  0
   -1.8171    0.1910    0.0000 C   0  0  0  0  0  0  0  0  0  0  0  0
   -0.9511   -0.3090    0.0000 C   0  0  0  0  0  0  0  0  0  0  0  0
   -0.0000   -0.0000    0.0000 N   0  0  0  0  0  0  0  0  0  0  0  0
    0.3090    0.9511    0.0000 H   0  0  0  0  0  0  0  0  0  0  0  0
  1  2  1  0  0  0  0
  2  3  1  0  0  0  0
  3  4  2  0  0  0  0
  3  5  1  0  0  0  0
  5  6  1  0  0  0  0
  6 22  1  0  0  0  0
  6  7  2  0  0  0  0
  7  8  1  0  0  0  0
  8 21  1  0  0  0  0
  8  9  2  0  0  0  0
  9 10  1  0  0  0  0
 10 11  2  0  0  0  0
 11 12  1  0  0  0  0
 11 20  1  0  0  0  0
 12 13  2  0  0  0  0
 12 14  1  0  0  0  0
 14 19  1  0  0  0  0
 14 15  2  0  0  0  0
 15 16  1  0  0  0  0
 16 17  2  0  0  0  0
 17 18  1  0  0  0  0
 18 19  2  0  0  0  0
 20 21  2  0  0  0  0
 21 22  1  0  0  0  0
 22 23  1  0  0  0  0
M  END
$$$$

 OpenBabel10082008492D

 37 41  0  0  0  0  0  0  0  0999 V2000
   -1.7321   -2.0000    0.0000 C   0  0  0  0  0  0  0  0  0  0  0  0
   -0.8660   -1.5000    0.0000 C   0  0  0  0  0  0  0  0  0  0  0  0
   -0.8660   -0.5000    0.0000 N   0  0  0  0  0  0  0  0  0  0  0  0
   -1.7321   -0.0000    0.0000 C   0  0  0  0  0  0  0  0  0  0  0  0
   -1.7321    1.0000    0.0000 C   0  0  0  0  0  0  0  0  0  0  0  0
   -0.8660    1.5000    0.0000 N   0  0  0  0  0  0  0  0  0  0  0  0
   -0.8660    2.5000    0.0000 C   0  0  0  0  0  0  0  0  0  0  0  0
    0.0000    3.0000    0.0000 C   0  0  0  0  0  0  0  0  0  0  0  0
   -0.0000    4.0000    0.0000 C   0  0  0  0  0  0  0  0  0  0  0  0
    0.8660    4.5000    0.0000 C   0  0  0  0  0  0  0  0  0  0  0  0
    1.7321    4.0000    0.0000 C   0  0  0  0  0  0  0  0  0  0  0  0
    2.5981    4.5000    0.0000 N   0  0  0  0  0  0  0  0  0  0  0  0
    3.4641    4.0000    0.0000 C   0  0  0  0  0  0  0  0  0  0  0  0
    4.3301    4.5000    0.0000 N   0  0  0  0  0  0  0  0  0  0  0  0
    5.1962    4.0000    0.0000 C   0  0  0  0  0  0  0  0  0  0  0  0
    5.1962    3.0000    0.0000 C   0  0  0  0  0  0  0  0  0  0  0  0
    6.0622    2.5000    0.0000 F   0  0  0  0  0  0  0  0  0  0  0  0
    4.3301    2.5000    0.0000 C   0  0  0  0  0  0  0  0  0  0  0  0
    4.3301    1.5000    0.0000 C   0  0  0  0  0  0  0  0  0  0  0  0
    5.1962    1.0000    0.0000 C   0  0  0  0  0  0  0  0  0  0  0  0
    5.1962   -0.0000    0.0000 C   0  0  0  0  0  0  0  0  0  0  0  0
    6.0622   -0.5000    0.0000 F   0  0  0  0  0  0  0  0  0  0  0  0
    4.3301   -0.5000    0.0000 C   0  0  0  0  0  0  0  0  0  0  0  0
    4.1222   -1.4781    0.0000 N   0  0  0  0  0  0  0  0  0  0  0  0
    3.1277   -1.5827    0.0000 C   0  0  0  0  0  0  0  0  0  0  0  0
    2.6277   -2.4487    0.0000 C   0  0  0  0  0  0  0  0  0  0  0  0
    2.7210   -0.6691    0.0000 N   0  0  0  0  0  0  0  0  0  0  0  0
    1.7428   -0.4612    0.0000 C   0  0  0  0  0  0  0  0  0  0  0  0
    1.4338    0.4898    0.0000 C   0  0  0  0  0  0  0  0  0  0  0  0
    1.0737   -1.2044    0.0000 C   0  0  0  0  0  0  0  0  0  0  0  0
    3.4641    0.0000    0.0000 C   0  0  0  0  0  0  0  0  0  0  0  0
    3.4641    1.0000    0.0000 C   0  0  0  0  0  0  0  0  0  0  0  0
    3.4641    3.0000    0.0000 N   0  0  0  0  0  0  0  0  0  0  0  0
    1.7321    3.0000    0.0000 N   0  0  0  0  0  0  0  0  0  0  0  0
    0.8660    2.5000    0.0000 C   0  0  0  0  0  0  0  0  0  0  0  0
   -0.0000    1.0000    0.0000 C   0  0  0  0  0  0  0  0  0  0  0  0
   -0.0000   -0.0000    0.0000 C   0  0  0  0  0  0  0  0  0  0  0  0
  1  2  1  0  0  0  0
  2  3  1  0  0  0  0
  3 37  1  0  0  0  0
  3  4  1  0  0  0  0
  4  5  1  0  0  0  0
  5  6  1  0  0  0  0
  6  7  1  0  0  0  0
  6 36  1  0  0  0  0
  7  8  1  0  0  0  0
  8 35  1  0  0  0  0
  8  9  2  0  0  0  0
  9 10  1  0  0  0  0
 10 11  2  0  0  0  0
 11 12  1  0  0  0  0
 11 34  1  0  0  0  0
 12 13  1  0  0  0  0
 13 33  1  0  0  0  0
 13 14  2  0  0  0  0
 14 15  1  0  0  0  0
 15 16  2  0  0  0  0
 16 17  1  0  0  0  0
 16 18  1  0  0  0  0
 18 19  1  0  0  0  0
 18 33  2  0  0  0  0
 19 32  1  0  0  0  0
 19 20  2  0  0  0  0
 20 21  1  0  0  0  0
 21 22  1  0  0  0  0
 21 23  2  0  0  0  0
 23 31  1  0  0  0  0
 23 24  1  0  0  0  0
 24 25  2  0  0  0  0
 25 26  1  0  0  0  0
 25 27  1  0  0  0  0
 27 28  1  0  0  0  0
 27 31  1  0  0  0  0
 28 29  1  0  0  0  0
 28 30  1  0  0  0  0
 31 32  2  0  0  0  0
 34 35  2  0  0  0  0
 36 37  1  0  0  0  0
M  END
$$$$

 OpenBabel10082008492D

 36 39  0  0  1  0  0  0  0  0999 V2000
    1.2321   -0.8660    0.0000 C   0  0  0  0  0  0  0  0  0  0  0  0
    1.7321    0.0000    0.0000 C   0  0  1  0  0  0  0  0  0  0  0  0
    2.2321   -0.8660    0.0000 H   0  0  0  0  0  0  0  0  0  0  0  0
    2.5981    0.5000    0.0000 O   0  0  0  0  0  0  0  0  0  0  0  0
    3.4641    0.0000    0.0000 C   0  0  0  0  0  0  0  0  0  0  0  0
    4.3301    0.5000    0.0000 C   0  0  1  0  0  0  0  0  0  0  0  0
    4.3301   -0.5000    0.0000 C   0  0  0  0  0  0  0  0  0  0  0  0
    5.1962   -1.0000    0.0000 C   0  0  0  0  0  0  0  0  0  0  0  0
    5.1962   -2.0000    0.0000 C   0  0  0  0  0  0  0  0  0  0  0  0
    4.3301   -2.5000    0.0000 C   0  0  0  0  0  0  0  0  0  0  0  0
    3.4641   -2.0000    0.0000 C   0  0  0  0  0  0  0  0  0  0  0  0
    3.4641   -1.0000    0.0000 C   0  0  0  0  0  0  0  0  0  0  0  0
    3.8301    1.3660    0.0000 C   0  0  0  0  0  0  0  0  0  0  0  0
    4.3301    2.2321    0.0000 C   0  0  0  0  0  0  0  0  0  0  0  0
    5.3301    2.2321    0.0000 C   0  0  1  0  0  0  0  0  0  0  0  0
    4.9234    3.1456    0.0000 C   0  0  0  0  0  0  0  0  0  0  0  0
    5.6665    3.8147    0.0000 C   0  0  0  0  0  0  0  0  0  0  0  0
    6.5326    3.3147    0.0000 C   0  0  0  0  0  0  0  0  0  0  0  0
    7.4461    3.7215    0.0000 O   0  0  0  0  0  0  0  0  0  0  0  0
    6.3246    2.3366    0.0000 N   0  0  0  0  0  0  0  0  0  0  0  0
    5.8301    1.3660    0.0000 C   0  0  0  0  0  0  0  0  0  0  0  0
    5.3301    0.5000    0.0000 N   0  0  0  0  0  0  0  0  0  0  0  0
    0.8660    0.5000    0.0000 C   0  0  0  0  0  0  0  0  0  0  0  0
    0.8660    1.5000    0.0000 C   0  0  0  0  0  0  0  0  0  0  0  0
    0.0000    2.0000    0.0000 C   0  0  0  0  0  0  0  0  0  0  0  0
    0.0000    3.0000    0.0000 C   0  0  0  0  0  0  0  0  0  0  0  0
    0.5000    3.8660    0.0000 F   0  0  0  0  0  0  0  0  0  0  0  0
    1.0000    3.0000    0.0000 F   0  0  0  0  0  0  0  0  0  0  0  0
   -0.8660    3.5000    0.0000 F   0  0  0  0  0  0  0  0  0  0  0  0
   -0.8660    1.5000    0.0000 C   0  0  0  0  0  0  0  0  0  0  0  0
   -0.8660    0.5000    0.0000 C   0  0  0  0  0  0  0  0  0  0  0  0
   -1.7321    0.0000    0.0000 C   0  0  0  0  0  0  0  0  0  0  0  0
   -2.7321    0.0000    0.0000 F   0  0  0  0  0  0  0  0  0  0  0  0
   -2.2321    0.8660    0.0000 F   0  0  0  0  0  0  0  0  0  0  0  0
   -1.7321   -1.0000    0.0000 F   0  0  0  0  0  0  0  0  0  0  0  0
    0.0000   -0.0000    0.0000 C   0  0  0  0  0  0  0  0  0  0  0  0
  1  2  1  0  0  0  0
  2  3  1  1  0  0  0
  2  4  1  0  0  0  0
  2 23  1  0  0  0  0
  4  5  1  0  0  0  0
  6  5  1  1  0  0  0
  6 22  1  0  0  0  0
  6  7  1  0  0  0  0
  6 13  1  0  0  0  0
  7 12  1  0  0  0  0
  7  8  2  0  0  0  0
  8  9  1  0  0  0  0
  9 10  2  0  0  0  0
 10 11  1  0  0  0  0
 11 12  2  0  0  0  0
 13 14  1  0  0  0  0
 15 14  1  1  0  0  0
 15 20  1  0  0  0  0
 15 16  1  0  0  0  0
 15 21  1  0  0  0  0
 16 17  1  0  0  0  0
 17 18  1  0  0  0  0
 18 19  2  0  0  0  0
 18 20  1  0  0  0  0
 21 22  1  0  0  0  0
 23 36  1  0  0  0  0
 23 24  2  0  0  0  0
 24 25  1  0  0  0  0
 25 26  1  0  0  0  0
 25 30  2  0  0  0  0
 26 27  1  0  0  0  0
 26 28  1  0  0  0  0
 26 29  1  0  0  0  0
 30 31  1  0  0  0  0
 31 32  1  0  0  0  0
 31 36  2  0  0  0  0
 32 33  1  0  0  0  0
 32 34  1  0  0  0  0
 32 35  1  0  0  0  0
M  END
$$$$

 OpenBabel10082008492D

 18 19  0  0  1  0  0  0  0  0999 V2000
   -6.0000    0.7321    0.0000 C   0  0  0  0  0  0  0  0  0  0  0  0
   -5.5000   -0.1340    0.0000 C   0  0  0  0  0  0  0  0  0  0  0  0
   -4.5000   -0.1340    0.0000 C   0  0  3  0  0  0  0  0  0  0  0  0
   -4.0000    0.7321    0.0000 N   0  0  0  0  0  0  0  0  0  0  0  0
   -3.0000    0.7321    0.0000 C   0  0  0  0  0  0  0  0  0  0  0  0
   -2.5000    1.5981    0.0000 O   0  0  0  0  0  0  0  0  0  0  0  0
   -2.5000   -0.1340    0.0000 C   0  0  0  0  0  0  0  0  0  0  0  0
   -1.5000   -0.1340    0.0000 C   0  0  0  0  0  0  0  0  0  0  0  0
   -1.0000   -1.0000    0.0000 C   0  0  0  0  0  0  0  0  0  0  0  0
    0.0000   -1.0000    0.0000 S   0  0  0  0  0  0  0  0  0  0  0  0
    0.0000   -2.0000    0.0000 N   0  0  0  0  0  0  0  0  0  0  0  0
    1.0000   -1.0000    0.0000 O   0  0  0  0  0  0  0  0  0  0  0  0
    0.0000   -0.0000    0.0000 O   0  0  0  0  0  0  0  0  0  0  0  0
   -1.5000   -1.8660    0.0000 C   0  0  0  0  0  0  0  0  0  0  0  0
   -1.0000   -2.7321    0.0000 Cl  0  0  0  0  0  0  0  0  0  0  0  0
   -2.5000   -1.8660    0.0000 C   0  0  0  0  0  0  0  0  0  0  0  0
   -3.0000   -1.0000    0.0000 C   0  0  0  0  0  0  0  0  0  0  0  0
   -4.0000   -1.0000    0.0000 N   0  0  0  0  0  0  0  0  0  0  0  0
  1  2  1  0  0  0  0
  2  3  1  0  0  0  0
  3 18  1  0  0  0  0
  3  4  1  0  0  0  0
  4  5  1  0  0  0  0
  5  6  2  0  0  0  0
  5  7  1  0  0  0  0
  7 17  1  0  0  0  0
  7  8  2  0  0  0  0
  8  9  1  0  0  0  0
  9 10  1  0  0  0  0
  9 14  2  0  0  0  0
 10 11  1  0  0  0  0
 10 12  2  0  0  0  0
 10 13  2  0  0  0  0
 14 15  1  0  0  0  0
 14 16  1  0  0  0  0
 16 17  2  0  0  0  0
 17 18  1  0  0  0  0
M  END
$$$$

 OpenBabel10082008492D

 16 16  0  0  1  0  0  0  0  0999 V2000
    3.5424   -0.2602    0.0000 C   0  0  0  0  0  0  0  0  0  0  0  0
    2.6333   -0.0166    0.0000 C   0  0  0  0  0  0  0  0  0  0  0  0
    1.9678   -0.6821    0.0000 C   0  0  0  0  0  0  0  0  0  0  0  0
    1.0587   -0.4385    0.0000 C   0  0  3  0  0  0  0  0  0  0  0  0
   -0.2723   -1.7695    0.0000 C   0  0  0  0  0  0  0  0  0  0  0  0
    0.8151    0.4706    0.0000 C   0  0  0  0  0  0  0  0  0  0  0  0
    1.5618    1.0435    0.0000 C   0  0  0  0  0  0  0  0  0  0  0  0
    2.4313    0.6834    0.0000 C   0  0  0  0  0  0  0  0  0  0  0  0
    0.8151    1.4118    0.0000 C   0  0  0  0  0  0  0  0  0  0  0  0
    1.6302    1.8824    0.0000 O   0  0  0  0  0  0  0  0  0  0  0  0
    0.0000    1.8824    0.0000 N   0  0  0  0  0  0  0  0  0  0  0  0
   -0.8151    1.4118    0.0000 C   0  0  0  0  0  0  0  0  0  0  0  0
   -1.6302    1.8824    0.0000 O   0  0  0  0  0  0  0  0  0  0  0  0
   -0.8151    0.4706    0.0000 N   0  0  0  0  0  0  0  0  0  0  0  0
   -0.0000   -0.0000    0.0000 C   0  0  0  0  0  0  0  0  0  0  0  0
    0.0000   -0.9412    0.0000 O   0  0  0  0  0  0  0  0  0  0  0  0
  1  2  1  0  0  0  0
  2  3  1  0  0  0  0
  3  4  1  0  0  0  0
  4  5  1  0  0  0  0
  4  6  1  0  0  0  0
  6 15  1  0  0  0  0
  6  7  1  0  0  0  0
  6  9  1  0  0  0  0
  7  8  1  0  0  0  0
  9 10  2  0  0  0  0
  9 11  1  0  0  0  0
 11 12  1  0  0  0  0
 12 13  2  0  0  0  0
 12 14  1  0  0  0  0
 14 15  1  0  0  0  0
 15 16  2  0  0  0  0
M  END
$$$$

 OpenBabel10082008492D

 34 37  0  0  0  0  0  0  0  0999 V2000
    1.8660   -2.5000    0.0000 C   0  0  0  0  0  0  0  0  0  0  0  0
    1.8660   -1.5000    0.0000 C   0  0  0  0  0  0  0  0  0  0  0  0
    1.0000   -1.0000    0.0000 C   0  0  0  0  0  0  0  0  0  0  0  0
    1.0000    0.0000    0.0000 S   0  0  0  0  0  0  0  0  0  0  0  0
    2.0000    0.0000    0.0000 O   0  0  0  0  0  0  0  0  0  0  0  0
    1.0000    1.0000    0.0000 O   0  0  0  0  0  0  0  0  0  0  0  0
   -0.0000   -0.0000    0.0000 N   0  0  0  0  0  0  0  0  0  0  0  0
   -0.5000   -0.8660    0.0000 C   0  0  0  0  0  0  0  0  0  0  0  0
   -0.0000   -1.7321    0.0000 C   0  0  0  0  0  0  0  0  0  0  0  0
   -0.5000   -2.5981    0.0000 C   0  0  0  0  0  0  0  0  0  0  0  0
   -1.5000   -2.5981    0.0000 C   0  0  0  0  0  0  0  0  0  0  0  0
   -2.0000   -3.4641    0.0000 F   0  0  0  0  0  0  0  0  0  0  0  0
   -2.0000   -1.7321    0.0000 C   0  0  0  0  0  0  0  0  0  0  0  0
   -3.0000   -1.7321    0.0000 C   0  0  0  0  0  0  0  0  0  0  0  0
   -3.5000   -0.8660    0.0000 O   0  0  0  0  0  0  0  0  0  0  0  0
   -3.5000   -2.5981    0.0000 C   0  0  0  0  0  0  0  0  0  0  0  0
   -3.0933   -3.5116    0.0000 C   0  0  0  0  0  0  0  0  0  0  0  0
   -3.8364   -4.1808    0.0000 N   0  0  0  0  0  0  0  0  0  0  0  0
   -3.7319   -5.1753    0.0000 H   0  0  0  0  0  0  0  0  0  0  0  0
   -4.7024   -3.6808    0.0000 C   0  0  0  0  0  0  0  0  0  0  0  0
   -5.6535   -3.9898    0.0000 N   0  0  0  0  0  0  0  0  0  0  0  0
   -6.3966   -3.3206    0.0000 C   0  0  0  0  0  0  0  0  0  0  0  0
   -6.1887   -2.3425    0.0000 C   0  0  0  0  0  0  0  0  0  0  0  0
   -6.9319   -1.6734    0.0000 C   0  0  0  0  0  0  0  0  0  0  0  0
   -7.8829   -1.9824    0.0000 C   0  0  0  0  0  0  0  0  0  0  0  0
   -8.6261   -1.3132    0.0000 C   0  0  0  0  0  0  0  0  0  0  0  0
   -8.4182   -0.3351    0.0000 C   0  0  0  0  0  0  0  0  0  0  0  0
   -9.1613    0.3340    0.0000 Cl  0  0  0  0  0  0  0  0  0  0  0  0
   -7.4671   -0.0261    0.0000 C   0  0  0  0  0  0  0  0  0  0  0  0
   -6.7240   -0.6952    0.0000 C   0  0  0  0  0  0  0  0  0  0  0  0
   -5.2377   -2.0335    0.0000 C   0  0  0  0  0  0  0  0  0  0  0  0
   -4.4945   -2.7026    0.0000 C   0  0  0  0  0  0  0  0  0  0  0  0
   -1.5000   -0.8660    0.0000 C   0  0  0  0  0  0  0  0  0  0  0  0
   -2.0000    0.0000    0.0000 F   0  0  0  0  0  0  0  0  0  0  0  0
  1  2  1  0  0  0  0
  2  3  1  0  0  0  0
  3  4  1  0  0  0  0
  4  5  2  0  0  0  0
  4  6  2  0  0  0  0
  4  7  1  0  0  0  0
  7  8  1  0  0  0  0
  8 33  1  0  0  0  0
  8  9  2  0  0  0  0
  9 10  1  0  0  0  0
 10 11  2  0  0  0  0
 11 12  1  0  0  0  0
 11 13  1  0  0  0  0
 13 14  1  0  0  0  0
 13 33  2  0  0  0  0
 14 15  2  0  0  0  0
 14 16  1  0  0  0  0
 16 32  1  0  0  0  0
 16 17  2  0  0  0  0
 17 18  1  0  0  0  0
 18 19  1  0  0  0  0
 18 20  1  0  0  0  0
 20 32  1  0  0  0  0
 20 21  2  0  0  0  0
 21 22  1  0  0  0  0
 22 23  2  0  0  0  0
 23 24  1  0  0  0  0
 23 31  1  0  0  0  0
 24 30  1  0  0  0  0
 24 25  2  0  0  0  0
 25 26  1  0  0  0  0
 26 27  2  0  0  0  0
 27 28  1  0  0  0  0
 27 29  1  0  0  0  0
 29 30  2  0  0  0  0
 31 32  2  0  0  0  0
 33 34  1  0  0  0  0
M  END
$$$$

 OpenBabel10082008492D

 50 53  0  0  1  0  0  0  0  0999 V2000
   -8.0796   -3.5314    0.0000 C   0  0  0  0  0  0  0  0  0  0  0  0
   -8.5703   -2.6815    0.0000 C   0  0  0  0  0  0  0  0  0  0  0  0
   -9.5518   -2.6815    0.0000 C   0  0  0  0  0  0  0  0  0  0  0  0
  -10.0426   -1.8315    0.0000 C   0  0  0  0  0  0  0  0  0  0  0  0
   -9.5518   -0.9815    0.0000 C   0  0  0  0  0  0  0  0  0  0  0  0
   -8.5703   -0.9815    0.0000 C   0  0  0  0  0  0  0  0  0  0  0  0
   -8.0796   -0.1315    0.0000 C   0  0  0  0  0  0  0  0  0  0  0  0
   -8.0796   -1.8315    0.0000 C   0  0  0  0  0  0  0  0  0  0  0  0
   -7.0981   -1.8315    0.0000 O   0  0  0  0  0  0  0  0  0  0  0  0
   -6.6074   -2.6815    0.0000 C   0  0  0  0  0  0  0  0  0  0  0  0
   -5.6259   -2.6815    0.0000 C   0  0  0  0  0  0  0  0  0  0  0  0
   -5.1352   -3.5314    0.0000 O   0  0  0  0  0  0  0  0  0  0  0  0
   -5.1352   -1.8315    0.0000 N   0  0  0  0  0  0  0  0  0  0  0  0
   -4.1537   -1.8315    0.0000 C   0  0  1  0  0  0  0  0  0  0  0  0
   -4.1537   -2.8130    0.0000 H   0  0  0  0  0  0  0  0  0  0  0  0
   -3.1722   -1.8315    0.0000 C   0  0  0  0  0  0  0  0  0  0  0  0
   -2.6815   -2.6815    0.0000 C   0  0  0  0  0  0  0  0  0  0  0  0
   -1.7000   -2.6815    0.0000 C   0  0  0  0  0  0  0  0  0  0  0  0
   -1.2092   -3.5314    0.0000 C   0  0  0  0  0  0  0  0  0  0  0  0
   -1.7000   -4.3814    0.0000 C   0  0  0  0  0  0  0  0  0  0  0  0
   -2.6815   -4.3814    0.0000 C   0  0  0  0  0  0  0  0  0  0  0  0
   -3.1722   -3.5314    0.0000 C   0  0  0  0  0  0  0  0  0  0  0  0
   -4.1537   -0.8500    0.0000 C   0  0  1  0  0  0  0  0  0  0  0  0
   -4.6444    0.0000    0.0000 H   0  0  0  0  0  0  0  0  0  0  0  0
   -5.1352   -0.8500    0.0000 O   0  0  0  0  0  0  0  0  0  0  0  0
   -3.3037   -0.3592    0.0000 C   0  0  0  0  0  0  0  0  0  0  0  0
   -3.3037    0.6222    0.0000 C   0  0  2  0  0  0  0  0  0  0  0  0
   -4.2852    0.6222    0.0000 H   0  0  0  0  0  0  0  0  0  0  0  0
   -3.3037    1.6037    0.0000 C   0  0  0  0  0  0  0  0  0  0  0  0
   -4.1537    2.0945    0.0000 C   0  0  0  0  0  0  0  0  0  0  0  0
   -5.0037    1.6037    0.0000 C   0  0  0  0  0  0  0  0  0  0  0  0
   -5.8537    2.0945    0.0000 C   0  0  0  0  0  0  0  0  0  0  0  0
   -5.8537    3.0759    0.0000 C   0  0  0  0  0  0  0  0  0  0  0  0
   -5.0037    3.5667    0.0000 C   0  0  0  0  0  0  0  0  0  0  0  0
   -4.1537    3.0759    0.0000 C   0  0  0  0  0  0  0  0  0  0  0  0
   -2.3222    0.6222    0.0000 N   0  0  0  0  0  0  0  0  0  0  0  0
   -1.8315    1.4722    0.0000 C   0  0  0  0  0  0  0  0  0  0  0  0
   -2.3222    2.3222    0.0000 O   0  0  0  0  0  0  0  0  0  0  0  0
   -0.8500    1.4722    0.0000 C   0  0  2  0  0  0  0  0  0  0  0  0
   -0.8500    2.4537    0.0000 H   0  0  0  0  0  0  0  0  0  0  0  0
    1.1130    1.4722    0.0000 C   0  0  0  0  0  0  0  0  0  0  0  0
    1.6037    2.3222    0.0000 C   0  0  0  0  0  0  0  0  0  0  0  0
    1.6037    0.6222    0.0000 C   0  0  0  0  0  0  0  0  0  0  0  0
   -0.8500    0.4907    0.0000 N   0  0  0  0  0  0  0  0  0  0  0  0
   -1.7000    0.0000    0.0000 C   0  0  0  0  0  0  0  0  0  0  0  0
   -1.7000   -0.9815    0.0000 C   0  0  0  0  0  0  0  0  0  0  0  0
   -0.8500   -1.4722    0.0000 C   0  0  0  0  0  0  0  0  0  0  0  0
   -0.0000   -0.9815    0.0000 N   0  0  0  0  0  0  0  0  0  0  0  0
   -0.0000   -0.0000    0.0000 C   0  0  0  0  0  0  0  0  0  0  0  0
    0.8500    0.4907    0.0000 O   0  0  0  0  0  0  0  0  0  0  0  0
  1  2  1  0  0  0  0
  2  8  1  0  0  0  0
  2  3  2  0  0  0  0
  3  4  1  0  0  0  0
  4  5  2  0  0  0  0
  5  6  1  0  0  0  0
  6  7  1  0  0  0  0
  6  8  2  0  0  0  0
  8  9  1  0  0  0  0
  9 10  1  0  0  0  0
 10 11  1  0  0  0  0
 11 12  2  0  0  0  0
 11 13  1  0  0  0  0
 13 14  1  0  0  0  0
 14 15  1  1  0  0  0
 14 16  1  0  0  0  0
 14 23  1  0  0  0  0
 16 17  1  0  0  0  0
 17 22  1  0  0  0  0
 17 18  2  0  0  0  0
 18 19  1  0  0  0  0
 19 20  2  0  0  0  0
 20 21  1  0  0  0  0
 21 22  2  0  0  0  0
 23 24  1  6  0  0  0
 23 25  1  0  0  0  0
 23 26  1  0  0  0  0
 26 27  1  0  0  0  0
 27 28  1  1  0  0  0
 27 29  1  0  0  0  0
 27 36  1  0  0  0  0
 29 30  1  0  0  0  0
 30 35  1  0  0  0  0
 30 31  2  0  0  0  0
 31 32  1  0  0  0  0
 32 33  2  0  0  0  0
 33 34  1  0  0  0  0
 34 35  2  0  0  0  0
 36 37  1  0  0  0  0
 37 38  2  0  0  0  0
 37 39  1  0  0  0  0
 39 40  1  1  0  0  0
 39 41  1  0  0  0  0
 39 44  1  0  0  0  0
 41 42  1  0  0  0  0
 41 43  1  0  0  0  0
 44 49  1  0  0  0  0
 44 45  1  0  0  0  0
 45 46  1  0  0  0  0
 46 47  1  0  0  0  0
 47 48  1  0  0  0  0
 48 49  1  0  0  0  0
 49 50  2  0  0  0  0
M  END
$$$$

 OpenBabel10082008492D

 13 12  0  0  0  0  0  0  0  0999 V2000
    0.1340   -3.2321    0.0000 O   0  0  0  0  0  0  0  0  0  0  0  0
    0.6340   -2.3660    0.0000 C   0  0  0  0  0  0  0  0  0  0  0  0
    1.6340   -2.3660    0.0000 O   0  0  0  0  0  0  0  0  0  0  0  0
    0.1340   -1.5000    0.0000 C   0  0  0  0  0  0  0  0  0  0  0  0
   -0.8660   -1.5000    0.0000 C   0  0  0  0  0  0  0  0  0  0  0  0
   -0.8660   -2.5000    0.0000 O   0  0  0  0  0  0  0  0  0  0  0  0
   -1.8660   -1.5000    0.0000 C   0  0  0  0  0  0  0  0  0  0  0  0
   -2.3660   -2.3660    0.0000 C   0  0  0  0  0  0  0  0  0  0  0  0
   -1.8660   -3.2321    0.0000 O   0  0  0  0  0  0  0  0  0  0  0  0
   -3.3660   -2.3660    0.0000 O   0  0  0  0  0  0  0  0  0  0  0  0
   -0.8660   -0.5000    0.0000 C   0  0  0  0  0  0  0  0  0  0  0  0
   -1.7321   -0.0000    0.0000 O   0  0  0  0  0  0  0  0  0  0  0  0
    0.0000    0.0000    0.0000 O   0  0  0  0  0  0  0  0  0  0  0  0
  1  2  2  0  0  0  0
  2  3  1  0  0  0  0
  2  4  1  0  0  0  0
  4  5  1  0  0  0  0
  5  6  1  0  0  0  0
  5  7  1  0  0  0  0
  5 11  1  0  0  0  0
  7  8  1  0  0  0  0
  8  9  2  0  0  0  0
  8 10  1  0  0  0  0
 11 12  2  0  0  0  0
 11 13  1  0  0  0  0
M  END
$$$$

 OpenBabel10082008492D

 19 19  0  0  1  0  0  0  0  0999 V2000
   -3.3660    1.6340    0.0000 C   0  0  0  0  0  0  0  0  0  0  0  0
   -2.3660    1.6340    0.0000 O   0  0  0  0  0  0  0  0  0  0  0  0
   -1.8660    2.5000    0.0000 C   0  0  0  0  0  0  0  0  0  0  0  0
   -0.8660    2.5000    0.0000 C   0  0  1  0  0  0  0  0  0  0  0  0
   -0.8660    3.5000    0.0000 H   0  0  0  0  0  0  0  0  0  0  0  0
    0.1340    2.5000    0.0000 N   0  0  0  0  0  0  0  0  0  0  0  0
    0.6340    3.3660    0.0000 C   0  0  0  0  0  0  0  0  0  0  0  0
    0.1340    4.2321    0.0000 C   0  0  0  0  0  0  0  0  0  0  0  0
    1.6340    3.3660    0.0000 O   0  0  0  0  0  0  0  0  0  0  0  0
   -0.8660    1.5000    0.0000 C   0  0  0  0  0  0  0  0  0  0  0  0
   -0.0000    1.0000    0.0000 O   0  0  0  0  0  0  0  0  0  0  0  0
   -1.7321    1.0000    0.0000 N   0  0  0  0  0  0  0  0  0  0  0  0
   -1.7321   -0.0000    0.0000 C   0  0  0  0  0  0  0  0  0  0  0  0
   -0.8660   -0.5000    0.0000 C   0  0  0  0  0  0  0  0  0  0  0  0
   -0.8660   -1.5000    0.0000 C   0  0  0  0  0  0  0  0  0  0  0  0
    0.0000   -2.0000    0.0000 C   0  0  0  0  0  0  0  0  0  0  0  0
    0.8660   -1.5000    0.0000 C   0  0  0  0  0  0  0  0  0  0  0  0
    0.8660   -0.5000    0.0000 C   0  0  0  0  0  0  0  0  0  0  0  0
    0.0000    0.0000    0.0000 C   0  0  0  0  0  0  0  0  0  0  0  0
  1  2  1  0  0  0  0
  2  3  1  0  0  0  0
  3  4  1  0  0  0  0
  4  5  1  6  0  0  0
  4  6  1  0  0  0  0
  4 10  1  0  0  0  0
  6  7  1  0  0  0  0
  7  8  1  0  0  0  0
  7  9  2  0  0  0  0
 10 11  2  0  0  0  0
 10 12  1  0  0  0  0
 12 13  1  0  0  0  0
 13 14  1  0  0  0  0
 14 19  1  0  0  0  0
 14 15  2  0  0  0  0
 15 16  1  0  0  0  0
 16 17  2  0  0  0  0
 17 18  1  0  0  0  0
 18 19  2  0  0  0  0
M  END
$$$$

 OpenBabel10082008492D

 24 25  0  0  0  0  0  0  0  0999 V2000
    6.1962   -1.0000    0.0000 C   0  0  0  0  0  0  0  0  0  0  0  0
    5.3301   -1.5000    0.0000 C   0  0  0  0  0  0  0  0  0  0  0  0
    5.3301   -2.5000    0.0000 C   0  0  0  0  0  0  0  0  0  0  0  0
    4.4641   -3.0000    0.0000 C   0  0  0  0  0  0  0  0  0  0  0  0
    3.5981   -2.5000    0.0000 C   0  0  0  0  0  0  0  0  0  0  0  0
    3.5981   -1.5000    0.0000 C   0  0  0  0  0  0  0  0  0  0  0  0
    2.7321   -1.0000    0.0000 N   0  0  0  0  0  0  0  0  0  0  0  0
    1.8660   -1.5000    0.0000 C   0  0  0  0  0  0  0  0  0  0  0  0
    1.8660   -2.5000    0.0000 C   0  0  0  0  0  0  0  0  0  0  0  0
    1.0000   -3.0000    0.0000 C   0  0  0  0  0  0  0  0  0  0  0  0
    0.1340   -2.5000    0.0000 N   0  0  0  0  0  0  0  0  0  0  0  0
    0.1340   -1.5000    0.0000 C   0  0  0  0  0  0  0  0  0  0  0  0
    1.0000   -1.0000    0.0000 C   0  0  0  0  0  0  0  0  0  0  0  0
    1.0000   -0.0000    0.0000 S   0  0  0  0  0  0  0  0  0  0  0  0
    2.0000   -0.0000    0.0000 O   0  0  0  0  0  0  0  0  0  0  0  0
    1.0000    1.0000    0.0000 O   0  0  0  0  0  0  0  0  0  0  0  0
    0.0000   -0.0000    0.0000 N   0  0  0  0  0  0  0  0  0  0  0  0
   -0.5000    0.8660    0.0000 C   0  0  0  0  0  0  0  0  0  0  0  0
   -0.0000    1.7321    0.0000 O   0  0  0  0  0  0  0  0  0  0  0  0
   -1.5000    0.8660    0.0000 N   0  0  0  0  0  0  0  0  0  0  0  0
   -2.0000    1.7321    0.0000 C   0  0  0  0  0  0  0  0  0  0  0  0
   -1.5000    2.5981    0.0000 C   0  0  0  0  0  0  0  0  0  0  0  0
   -3.0000    1.7321    0.0000 C   0  0  0  0  0  0  0  0  0  0  0  0
    4.4641   -1.0000    0.0000 C   0  0  0  0  0  0  0  0  0  0  0  0
  1  2  1  0  0  0  0
  2 24  1  0  0  0  0
  2  3  2  0  0  0  0
  3  4  1  0  0  0  0
  4  5  2  0  0  0  0
  5  6  1  0  0  0  0
  6  7  1  0  0  0  0
  6 24  2  0  0  0  0
  7  8  1  0  0  0  0
  8 13  1  0  0  0  0
  8  9  2  0  0  0  0
  9 10  1  0  0  0  0
 10 11  2  0  0  0  0
 11 12  1  0  0  0  0
 12 13  2  0  0  0  0
 13 14  1  0  0  0  0
 14 15  2  0  0  0  0
 14 16  2  0  0  0  0
 14 17  1  0  0  0  0
 17 18  1  0  0  0  0
 18 19  2  0  0  0  0
 18 20  1  0  0  0  0
 20 21  1  0  0  0  0
 21 22  1  0  0  0  0
 21 23  1  0  0  0  0
M  END
$$$$

 OpenBabel10082008492D

 22 23  0  0  0  0  0  0  0  0999 V2000
   -4.5000   -0.1340    0.0000 C   0  0  0  0  0  0  0  0  0  0  0  0
   -4.0000   -1.0000    0.0000 C   0  0  0  0  0  0  0  0  0  0  0  0
   -4.5000   -1.8660    0.0000 O   0  0  0  0  0  0  0  0  0  0  0  0
   -3.0000   -1.0000    0.0000 C   0  0  0  0  0  0  0  0  0  0  0  0
   -2.5000   -0.1340    0.0000 C   0  0  0  0  0  0  0  0  0  0  0  0
   -1.5000   -0.1340    0.0000 C   0  0  0  0  0  0  0  0  0  0  0  0
   -1.0000   -1.0000    0.0000 C   0  0  0  0  0  0  0  0  0  0  0  0
    0.0000   -1.0000    0.0000 S   0  0  0  0  0  0  0  0  0  0  0  0
    0.0000   -2.0000    0.0000 O   0  0  0  0  0  0  0  0  0  0  0  0
    1.0000   -1.0000    0.0000 O   0  0  0  0  0  0  0  0  0  0  0  0
    0.0000   -0.0000    0.0000 N   0  0  0  0  0  0  0  0  0  0  0  0
    0.8660    0.5000    0.0000 C   0  0  0  0  0  0  0  0  0  0  0  0
    1.7321    0.0000    0.0000 O   0  0  0  0  0  0  0  0  0  0  0  0
    0.8660    1.5000    0.0000 N   0  0  0  0  0  0  0  0  0  0  0  0
    1.7321    2.0000    0.0000 C   0  0  0  0  0  0  0  0  0  0  0  0
    1.7321    3.0000    0.0000 C   0  0  0  0  0  0  0  0  0  0  0  0
    2.5981    3.5000    0.0000 C   0  0  0  0  0  0  0  0  0  0  0  0
    3.4641    3.0000    0.0000 C   0  0  0  0  0  0  0  0  0  0  0  0
    3.4641    2.0000    0.0000 C   0  0  0  0  0  0  0  0  0  0  0  0
    2.5981    1.5000    0.0000 C   0  0  0  0  0  0  0  0  0  0  0  0
   -1.5000   -1.8660    0.0000 C   0  0  0  0  0  0  0  0  0  0  0  0
   -2.5000   -1.8660    0.0000 C   0  0  0  0  0  0  0  0  0  0  0  0
  1  2  1  0  0  0  0
  2  3  2  0  0  0  0
  2  4  1  0  0  0  0
  4 22  1  0  0  0  0
  4  5  2  0  0  0  0
  5  6  1  0  0  0  0
  6  7  2  0  0  0  0
  7  8  1  0  0  0  0
  7 21  1  0  0  0  0
  8  9  2  0  0  0  0
  8 10  2  0  0  0  0
  8 11  1  0  0  0  0
 11 12  1  0  0  0  0
 12 13  2  0  0  0  0
 12 14  1  0  0  0  0
 14 15  1  0  0  0  0
 15 20  1  0  0  0  0
 15 16  1  0  0  0  0
 16 17  1  0  0  0  0
 17 18  1  0  0  0  0
 18 19  1  0  0  0  0
 19 20  1  0  0  0  0
 21 22  2  0  0  0  0
M  END
$$$$

 OpenBabel10082008492D

 21 23  0  0  0  0  0  0  0  0999 V2000
    0.8660   -1.5000    0.0000 C   0  0  0  0  0  0  0  0  0  0  0  0
    0.0000   -1.0000    0.0000 N   0  0  0  0  0  0  0  0  0  0  0  0
   -0.8660   -1.5000    0.0000 C   0  0  0  0  0  0  0  0  0  0  0  0
   -1.7321   -1.0000    0.0000 C   0  0  0  0  0  0  0  0  0  0  0  0
   -1.7321   -0.0000    0.0000 C   0  0  0  0  0  0  0  0  0  0  0  0
   -2.5981    0.5000    0.0000 O   0  0  0  0  0  0  0  0  0  0  0  0
   -3.4641   -0.0000    0.0000 C   0  0  0  0  0  0  0  0  0  0  0  0
   -4.3301    0.5000    0.0000 C   0  0  0  0  0  0  0  0  0  0  0  0
   -5.1962   -0.0000    0.0000 C   0  0  0  0  0  0  0  0  0  0  0  0
   -6.0622    0.5000    0.0000 C   0  0  0  0  0  0  0  0  0  0  0  0
   -6.0622    1.5000    0.0000 C   0  0  0  0  0  0  0  0  0  0  0  0
   -5.1962    2.0000    0.0000 C   0  0  0  0  0  0  0  0  0  0  0  0
   -4.3301    1.5000    0.0000 C   0  0  0  0  0  0  0  0  0  0  0  0
   -3.4641   -1.0000    0.0000 C   0  0  0  0  0  0  0  0  0  0  0  0
   -2.5981   -1.5000    0.0000 C   0  0  0  0  0  0  0  0  0  0  0  0
   -2.5981   -2.5000    0.0000 C   0  0  0  0  0  0  0  0  0  0  0  0
   -3.4641   -3.0000    0.0000 C   0  0  0  0  0  0  0  0  0  0  0  0
   -4.3301   -2.5000    0.0000 C   0  0  0  0  0  0  0  0  0  0  0  0
   -4.3301   -1.5000    0.0000 C   0  0  0  0  0  0  0  0  0  0  0  0
   -0.8660    0.5000    0.0000 C   0  0  0  0  0  0  0  0  0  0  0  0
   -0.0000   -0.0000    0.0000 C   0  0  0  0  0  0  0  0  0  0  0  0
  1  2  1  0  0  0  0
  2 21  1  0  0  0  0
  2  3  1  0  0  0  0
  3  4  1  0  0  0  0
  4  5  1  0  0  0  0
  5  6  1  0  0  0  0
  5 20  1  0  0  0  0
  6  7  1  0  0  0  0
  7  8  1  0  0  0  0
  7 14  1  0  0  0  0
  8 13  1  0  0  0  0
  8  9  2  0  0  0  0
  9 10  1  0  0  0  0
 10 11  2  0  0  0  0
 11 12  1  0  0  0  0
 12 13  2  0  0  0  0
 14 19  1  0  0  0  0
 14 15  2  0  0  0  0
 15 16  1  0  0  0  0
 16 17  2  0  0  0  0
 17 18  1  0  0  0  0
 18 19  2  0  0  0  0
 20 21  1  0  0  0  0
M  END
$$$$

 OpenBabel10082008492D

 28 29  0  0  1  0  0  0  0  0999 V2000
    2.5981   -0.5000    0.0000 O   0  0  0  0  0  0  0  0  0  0  0  0
    1.7321   -0.0000    0.0000 C   0  0  0  0  0  0  0  0  0  0  0  0
    1.7321    1.0000    0.0000 N   0  0  0  0  0  0  0  0  0  0  0  0
    2.5981    1.5000    0.0000 C   0  0  0  0  0  0  0  0  0  0  0  0
    3.4641    1.0000    0.0000 C   0  0  3  0  0  0  0  0  0  0  0  0
    4.3301    1.5000    0.0000 C   0  0  0  0  0  0  0  0  0  0  0  0
    5.1962    1.0000    0.0000 C   0  0  0  0  0  0  0  0  0  0  0  0
    5.1962    0.0000    0.0000 C   0  0  0  0  0  0  0  0  0  0  0  0
    4.3301   -0.5000    0.0000 C   0  0  0  0  0  0  0  0  0  0  0  0
    3.4641   -0.0000    0.0000 N   0  0  0  0  0  0  0  0  0  0  0  0
    0.8660   -0.5000    0.0000 C   0  0  0  0  0  0  0  0  0  0  0  0
    0.8660   -1.5000    0.0000 C   0  0  0  0  0  0  0  0  0  0  0  0
    0.0000   -2.0000    0.0000 C   0  0  0  0  0  0  0  0  0  0  0  0
    0.0000   -3.0000    0.0000 O   0  0  0  0  0  0  0  0  0  0  0  0
   -0.8660   -3.5000    0.0000 C   0  0  0  0  0  0  0  0  0  0  0  0
   -0.8660   -4.5000    0.0000 C   0  0  0  0  0  0  0  0  0  0  0  0
   -0.3660   -5.3660    0.0000 F   0  0  0  0  0  0  0  0  0  0  0  0
    0.1340   -4.5000    0.0000 F   0  0  0  0  0  0  0  0  0  0  0  0
   -1.7321   -5.0000    0.0000 F   0  0  0  0  0  0  0  0  0  0  0  0
   -0.8660   -1.5000    0.0000 C   0  0  0  0  0  0  0  0  0  0  0  0
   -0.8660   -0.5000    0.0000 C   0  0  0  0  0  0  0  0  0  0  0  0
   -0.0000   -0.0000    0.0000 C   0  0  0  0  0  0  0  0  0  0  0  0
   -0.0000    1.0000    0.0000 O   0  0  0  0  0  0  0  0  0  0  0  0
    0.8660    1.5000    0.0000 C   0  0  0  0  0  0  0  0  0  0  0  0
    0.8660    2.5000    0.0000 C   0  0  0  0  0  0  0  0  0  0  0  0
    0.3660    3.3660    0.0000 F   0  0  0  0  0  0  0  0  0  0  0  0
   -0.1340    2.5000    0.0000 F   0  0  0  0  0  0  0  0  0  0  0  0
    1.7321    3.0000    0.0000 F   0  0  0  0  0  0  0  0  0  0  0  0
  1  2  2  0  0  0  0
  2  3  1  0  0  0  0
  2 11  1  0  0  0  0
  3  4  1  0  0  0  0
  4  5  1  0  0  0  0
  5 10  1  0  0  0  0
  5  6  1  0  0  0  0
  6  7  1  0  0  0  0
  7  8  1  0  0  0  0
  8  9  1  0  0  0  0
  9 10  1  0  0  0  0
 11 22  1  0  0  0  0
 11 12  2  0  0  0  0
 12 13  1  0  0  0  0
 13 14  1  0  0  0  0
 13 20  2  0  0  0  0
 14 15  1  0  0  0  0
 15 16  1  0  0  0  0
 16 17  1  0  0  0  0
 16 18  1  0  0  0  0
 16 19  1  0  0  0  0
 20 21  1  0  0  0  0
 21 22  2  0  0  0  0
 22 23  1  0  0  0  0
 23 24  1  0  0  0  0
 24 25  1  0  0  0  0
 25 26  1  0  0  0  0
 25 27  1  0  0  0  0
 25 28  1  0  0  0  0
M  END
$$$$

 OpenBabel10082008492D

 26 28  0  0  1  0  0  0  0  0999 V2000
   -0.8660    2.5000    0.0000 O   0  0  0  0  0  0  0  0  0  0  0  0
   -0.8660    1.5000    0.0000 C   0  0  3  0  0  0  0  0  0  0  0  0
   -1.7321    1.0000    0.0000 C   0  0  0  0  0  0  0  0  0  0  0  0
   -1.7321    0.0000    0.0000 C   0  0  0  0  0  0  0  0  0  0  0  0
   -2.5981   -0.5000    0.0000 C   0  0  0  0  0  0  0  0  0  0  0  0
   -2.5981   -1.5000    0.0000 C   0  0  0  0  0  0  0  0  0  0  0  0
   -2.0981   -2.3660    0.0000 F   0  0  0  0  0  0  0  0  0  0  0  0
   -1.5981   -1.5000    0.0000 F   0  0  0  0  0  0  0  0  0  0  0  0
   -3.4641   -2.0000    0.0000 F   0  0  0  0  0  0  0  0  0  0  0  0
   -3.4641    0.0000    0.0000 N   0  0  0  0  0  0  0  0  0  0  0  0
   -3.4641    1.0000    0.0000 C   0  0  0  0  0  0  0  0  0  0  0  0
   -4.3301    1.5000    0.0000 C   0  0  0  0  0  0  0  0  0  0  0  0
   -5.1962    1.0000    0.0000 C   0  0  0  0  0  0  0  0  0  0  0  0
   -5.6962    0.1340    0.0000 F   0  0  0  0  0  0  0  0  0  0  0  0
   -4.6962    0.1340    0.0000 F   0  0  0  0  0  0  0  0  0  0  0  0
   -6.0622    1.5000    0.0000 F   0  0  0  0  0  0  0  0  0  0  0  0
   -4.3301    2.5000    0.0000 C   0  0  0  0  0  0  0  0  0  0  0  0
   -3.4641    3.0000    0.0000 C   0  0  0  0  0  0  0  0  0  0  0  0
   -2.5981    2.5000    0.0000 C   0  0  0  0  0  0  0  0  0  0  0  0
   -2.5981    1.5000    0.0000 C   0  0  0  0  0  0  0  0  0  0  0  0
    0.0000    1.0000    0.0000 C   0  0  3  0  0  0  0  0  0  0  0  0
    0.8660    1.5000    0.0000 C   0  0  0  0  0  0  0  0  0  0  0  0
    1.7321    1.0000    0.0000 C   0  0  0  0  0  0  0  0  0  0  0  0
    1.7321    0.0000    0.0000 C   0  0  0  0  0  0  0  0  0  0  0  0
    0.8660   -0.5000    0.0000 C   0  0  0  0  0  0  0  0  0  0  0  0
    0.0000   -0.0000    0.0000 N   0  0  0  0  0  0  0  0  0  0  0  0
  1  2  1  0  0  0  0
  2  3  1  0  0  0  0
  2 21  1  0  0  0  0
  3 20  1  0  0  0  0
  3  4  2  0  0  0  0
  4  5  1  0  0  0  0
  5  6  1  0  0  0  0
  5 10  2  0  0  0  0
  6  7  1  0  0  0  0
  6  8  1  0  0  0  0
  6  9  1  0  0  0  0
 10 11  1  0  0  0  0
 11 20  1  0  0  0  0
 11 12  2  0  0  0  0
 12 13  1  0  0  0  0
 12 17  1  0  0  0  0
 13 14  1  0  0  0  0
 13 15  1  0  0  0  0
 13 16  1  0  0  0  0
 17 18  2  0  0  0  0
 18 19  1  0  0  0  0
 19 20  2  0  0  0  0
 21 26  1  0  0  0  0
 21 22  1  0  0  0  0
 22 23  1  0  0  0  0
 23 24  1  0  0  0  0
 24 25  1  0  0  0  0
 25 26  1  0  0  0  0
M  END
$$$$

 OpenBabel10082008492D

 25 25  0  0  1  0  0  0  0  0999 V2000
    3.4641   -2.0000    0.0000 C   0  0  0  0  0  0  0  0  0  0  0  0
    2.5981   -1.5000    0.0000 C   0  0  0  0  0  0  0  0  0  0  0  0
    1.7321   -2.0000    0.0000 O   0  0  0  0  0  0  0  0  0  0  0  0
    0.8660   -1.5000    0.0000 C   0  0  0  0  0  0  0  0  0  0  0  0
    0.0000   -2.0000    0.0000 O   0  0  0  0  0  0  0  0  0  0  0  0
    0.8660   -0.5000    0.0000 C   0  0  0  0  0  0  0  0  0  0  0  0
    1.7321    0.0000    0.0000 C   0  0  0  0  0  0  0  0  0  0  0  0
    1.7321    1.0000    0.0000 C   0  0  1  0  0  0  0  0  0  0  0  0
    2.2321    1.8660    0.0000 H   0  0  0  0  0  0  0  0  0  0  0  0
    2.7321    1.0000    0.0000 O   0  0  0  0  0  0  0  0  0  0  0  0
    3.2321    0.1340    0.0000 C   0  0  0  0  0  0  0  0  0  0  0  0
    4.2321    0.1340    0.0000 C   0  0  0  0  0  0  0  0  0  0  0  0
    4.7321   -0.7321    0.0000 C   0  0  0  0  0  0  0  0  0  0  0  0
    2.7321   -0.7321    0.0000 C   0  0  0  0  0  0  0  0  0  0  0  0
    1.7321   -0.7321    0.0000 C   0  0  0  0  0  0  0  0  0  0  0  0
    0.8660    1.5000    0.0000 C   0  0  2  0  0  0  0  0  0  0  0  0
    0.3660    2.3660    0.0000 H   0  0  0  0  0  0  0  0  0  0  0  0
    1.3660    2.3660    0.0000 N   0  0  0  0  0  0  0  0  0  0  0  0
    0.8660    3.2321    0.0000 C   0  0  0  0  0  0  0  0  0  0  0  0
   -0.1340    3.2321    0.0000 C   0  0  0  0  0  0  0  0  0  0  0  0
    1.3660    4.0981    0.0000 O   0  0  0  0  0  0  0  0  0  0  0  0
    0.0000    1.0000    0.0000 C   0  0  1  0  0  0  0  0  0  0  0  0
   -1.0000    1.0000    0.0000 H   0  0  0  0  0  0  0  0  0  0  0  0
   -0.5000    1.8660    0.0000 N   0  0  0  0  0  0  0  0  0  0  0  0
   -0.0000   -0.0000    0.0000 C   0  0  0  0  0  0  0  0  0  0  0  0
  1  2  1  0  0  0  0
  2  3  1  0  0  0  0
  3  4  1  0  0  0  0
  4  5  2  0  0  0  0
  4  6  1  0  0  0  0
  6 25  1  0  0  0  0
  6  7  2  0  0  0  0
  7  8  1  0  0  0  0
  8  9  1  1  0  0  0
  8 10  1  0  0  0  0
  8 16  1  0  0  0  0
 10 11  1  0  0  0  0
 11 12  1  0  0  0  0
 11 14  1  0  0  0  0
 12 13  1  0  0  0  0
 14 15  1  0  0  0  0
 16 17  1  6  0  0  0
 16 18  1  0  0  0  0
 16 22  1  0  0  0  0
 18 19  1  0  0  0  0
 19 20  1  0  0  0  0
 19 21  2  0  0  0  0
 22 23  1  1  0  0  0
 22 24  1  0  0  0  0
 22 25  1  0  0  0  0
M  END
$$$$

 OpenBabel10082008492D

 32 35  0  0  1  0  0  0  0  0999 V2000
   12.4729   -6.1145    0.0000 C   0  0  0  0  0  0  0  0  0  0  0  0
   11.4729   -6.1145    0.0000 N   0  0  0  0  0  0  0  0  0  0  0  0
   10.8851   -6.9235    0.0000 N   0  0  0  0  0  0  0  0  0  0  0  0
    9.9340   -6.6145    0.0000 N   0  0  0  0  0  0  0  0  0  0  0  0
    9.9340   -5.6145    0.0000 C   0  0  0  0  0  0  0  0  0  0  0  0
    9.1250   -5.0267    0.0000 C   0  0  0  0  0  0  0  0  0  0  0  0
    8.2114   -5.4334    0.0000 C   0  0  0  0  0  0  0  0  0  0  0  0
    7.4024   -4.8457    0.0000 C   0  0  0  0  0  0  0  0  0  0  0  0
    7.5070   -3.8511    0.0000 C   0  0  0  0  0  0  0  0  0  0  0  0
    6.6979   -3.2634    0.0000 C   0  0  0  0  0  0  0  0  0  0  0  0
    5.7844   -3.6701    0.0000 C   0  0  0  0  0  0  0  0  0  0  0  0
    4.9754   -3.0823    0.0000 C   0  0  0  0  0  0  0  0  0  0  0  0
    5.0799   -2.0878    0.0000 C   0  0  0  0  0  0  0  0  0  0  0  0
    4.2709   -1.5000    0.0000 N   0  0  0  0  0  0  0  0  0  0  0  0
    3.3198   -1.8090    0.0000 C   0  0  0  0  0  0  0  0  0  0  0  0
    2.7321   -1.0000    0.0000 C   0  0  2  0  0  0  0  0  0  0  0  0
    1.8660   -0.5000    0.0000 H   0  0  0  0  0  0  0  0  0  0  0  0
    1.8660   -1.5000    0.0000 C   0  0  0  0  0  0  0  0  0  0  0  0
    1.0000   -1.0000    0.0000 O   0  0  0  0  0  0  0  0  0  0  0  0
    1.0000    0.0000    0.0000 P   0  0  0  0  0  0  0  0  0  0  0  0
    2.0000    0.0000    0.0000 O   0  0  0  0  0  0  0  0  0  0  0  0
    1.0000    1.0000    0.0000 O   0  0  0  0  0  0  0  0  0  0  0  0
   -0.0000   -0.0000    0.0000 O   0  0  0  0  0  0  0  0  0  0  0  0
    3.3198   -0.1910    0.0000 O   0  0  0  0  0  0  0  0  0  0  0  0
    4.2709   -0.5000    0.0000 C   0  0  0  0  0  0  0  0  0  0  0  0
    5.0799    0.0878    0.0000 O   0  0  0  0  0  0  0  0  0  0  0  0
    5.9935   -1.6810    0.0000 C   0  0  0  0  0  0  0  0  0  0  0  0
    6.8025   -2.2688    0.0000 C   0  0  0  0  0  0  0  0  0  0  0  0
    7.7160   -1.8621    0.0000 F   0  0  0  0  0  0  0  0  0  0  0  0
    8.4205   -3.4444    0.0000 C   0  0  0  0  0  0  0  0  0  0  0  0
    9.2295   -4.0322    0.0000 N   0  0  0  0  0  0  0  0  0  0  0  0
   10.8851   -5.3055    0.0000 N   0  0  0  0  0  0  0  0  0  0  0  0
  1  2  1  0  0  0  0
  2 32  1  0  0  0  0
  2  3  1  0  0  0  0
  3  4  2  0  0  0  0
  4  5  1  0  0  0  0
  5  6  1  0  0  0  0
  5 32  2  0  0  0  0
  6 31  1  0  0  0  0
  6  7  2  0  0  0  0
  7  8  1  0  0  0  0
  8  9  2  0  0  0  0
  9 10  1  0  0  0  0
  9 30  1  0  0  0  0
 10 28  1  0  0  0  0
 10 11  2  0  0  0  0
 11 12  1  0  0  0  0
 12 13  2  0  0  0  0
 13 14  1  0  0  0  0
 13 27  1  0  0  0  0
 14 25  1  0  0  0  0
 14 15  1  0  0  0  0
 15 16  1  0  0  0  0
 16 17  1  1  0  0  0
 16 18  1  0  0  0  0
 16 24  1  0  0  0  0
 18 19  1  0  0  0  0
 19 20  1  0  0  0  0
 20 21  2  0  0  0  0
 20 22  1  0  0  0  0
 20 23  1  0  0  0  0
 24 25  1  0  0  0  0
 25 26  2  0  0  0  0
 27 28  2  0  0  0  0
 28 29  1  0  0  0  0
 30 31  2  0  0  0  0
M  END
$$$$

 OpenBabel10082008492D

 43 43  0  0  1  0  0  0  0  0999 V2000
    4.3301    2.5000    0.0000 C   0  0  0  0  0  0  0  0  0  0  0  0
    3.4641    3.0000    0.0000 O   0  0  0  0  0  0  0  0  0  0  0  0
    2.5981    2.5000    0.0000 C   0  0  0  0  0  0  0  0  0  0  0  0
    2.5981    1.5000    0.0000 C   0  0  0  0  0  0  0  0  0  0  0  0
    1.7321    1.0000    0.0000 C   0  0  0  0  0  0  0  0  0  0  0  0
    1.7321    0.0000    0.0000 O   0  0  0  0  0  0  0  0  0  0  0  0
    0.8660   -0.5000    0.0000 C   0  0  0  0  0  0  0  0  0  0  0  0
    0.8660   -1.5000    0.0000 C   0  0  0  0  0  0  0  0  0  0  0  0
    0.0000   -2.0000    0.0000 C   0  0  0  0  0  0  0  0  0  0  0  0
    0.0000   -3.0000    0.0000 C   0  0  0  0  0  0  0  0  0  0  0  0
   -0.8660   -3.5000    0.0000 C   0  0  1  0  0  0  0  0  0  0  0  0
   -1.3660   -2.6340    0.0000 H   0  0  0  0  0  0  0  0  0  0  0  0
   -1.7321   -4.0000    0.0000 C   0  0  0  0  0  0  0  0  0  0  0  0
   -2.5981   -3.5000    0.0000 C   0  0  2  0  0  0  0  0  0  0  0  0
   -3.0981   -2.6340    0.0000 H   0  0  0  0  0  0  0  0  0  0  0  0
   -2.0981   -2.6340    0.0000 N   0  0  0  0  0  0  0  0  0  0  0  0
   -3.4641   -4.0000    0.0000 C   0  0  1  0  0  0  0  0  0  0  0  0
   -4.4641   -4.0000    0.0000 H   0  0  0  0  0  0  0  0  0  0  0  0
   -3.9641   -3.1340    0.0000 O   0  0  0  0  0  0  0  0  0  0  0  0
   -3.4641   -5.0000    0.0000 C   0  0  0  0  0  0  0  0  0  0  0  0
   -4.3301   -5.5000    0.0000 C   0  0  2  0  0  0  0  0  0  0  0  0
   -4.8301   -4.6340    0.0000 H   0  0  0  0  0  0  0  0  0  0  0  0
   -5.1962   -6.0000    0.0000 C   0  0  0  0  0  0  0  0  0  0  0  0
   -6.0622   -5.5000    0.0000 O   0  0  0  0  0  0  0  0  0  0  0  0
   -5.1962   -7.0000    0.0000 N   0  0  0  0  0  0  0  0  0  0  0  0
   -6.0622   -7.5000    0.0000 C   0  0  0  0  0  0  0  0  0  0  0  0
   -6.0622   -8.5000    0.0000 C   0  0  0  0  0  0  0  0  0  0  0  0
   -5.5622   -9.3660    0.0000 C   0  0  0  0  0  0  0  0  0  0  0  0
   -5.0622   -8.5000    0.0000 C   0  0  0  0  0  0  0  0  0  0  0  0
   -6.9282   -9.0000    0.0000 C   0  0  0  0  0  0  0  0  0  0  0  0
   -7.7942   -8.5000    0.0000 N   0  0  0  0  0  0  0  0  0  0  0  0
   -6.9282  -10.0000    0.0000 O   0  0  0  0  0  0  0  0  0  0  0  0
   -3.8301   -6.3660    0.0000 C   0  0  0  0  0  0  0  0  0  0  0  0
   -4.3301   -7.2321    0.0000 C   0  0  0  0  0  0  0  0  0  0  0  0
   -2.8301   -6.3660    0.0000 C   0  0  0  0  0  0  0  0  0  0  0  0
   -0.3660   -4.3660    0.0000 C   0  0  0  0  0  0  0  0  0  0  0  0
   -0.8660   -5.2321    0.0000 C   0  0  0  0  0  0  0  0  0  0  0  0
    0.6340   -4.3660    0.0000 C   0  0  0  0  0  0  0  0  0  0  0  0
   -0.8660   -1.5000    0.0000 C   0  0  0  0  0  0  0  0  0  0  0  0
   -0.8660   -0.5000    0.0000 C   0  0  0  0  0  0  0  0  0  0  0  0
   -0.0000   -0.0000    0.0000 C   0  0  0  0  0  0  0  0  0  0  0  0
   -0.0000    1.0000    0.0000 O   0  0  0  0  0  0  0  0  0  0  0  0
   -0.8660    1.5000    0.0000 C   0  0  0  0  0  0  0  0  0  0  0  0
  1  2  1  0  0  0  0
  2  3  1  0  0  0  0
  3  4  1  0  0  0  0
  4  5  1  0  0  0  0
  5  6  1  0  0  0  0
  6  7  1  0  0  0  0
  7 41  1  0  0  0  0
  7  8  2  0  0  0  0
  8  9  1  0  0  0  0
  9 10  1  0  0  0  0
  9 39  2  0  0  0  0
 10 11  1  0  0  0  0
 11 12  1  1  0  0  0
 11 13  1  0  0  0  0
 11 36  1  0  0  0  0
 13 14  1  0  0  0  0
 14 15  1  6  0  0  0
 14 16  1  0  0  0  0
 14 17  1  0  0  0  0
 17 18  1  1  0  0  0
 17 19  1  0  0  0  0
 17 20  1  0  0  0  0
 20 21  1  0  0  0  0
 21 22  1  6  0  0  0
 21 23  1  0  0  0  0
 21 33  1  0  0  0  0
 23 24  2  0  0  0  0
 23 25  1  0  0  0  0
 25 26  1  0  0  0  0
 26 27  1  0  0  0  0
 27 28  1  0  0  0  0
 27 29  1  0  0  0  0
 27 30  1  0  0  0  0
 30 31  1  0  0  0  0
 30 32  2  0  0  0  0
 33 34  1  0  0  0  0
 33 35  1  0  0  0  0
 36 37  1  0  0  0  0
 36 38  1  0  0  0  0
 39 40  1  0  0  0  0
 40 41  2  0  0  0  0
 41 42  1  0  0  0  0
 42 43  1  0  0  0  0
M  END
$$$$

 OpenBabel10082008492D

 21 24  0  0  1  0  0  0  0  0999 V2000
   -0.5404    2.3678    0.0000 C   0  0  0  0  0  0  0  0  0  0  0  0
   -0.5404    1.4114    0.0000 N   0  0  0  0  0  0  0  0  0  0  0  0
    0.2878    0.9332    0.0000 C   0  0  0  0  0  0  0  0  0  0  0  0
    0.2878   -0.0232    0.0000 C   0  0  0  0  0  0  0  0  0  0  0  0
   -0.5404   -0.5014    0.0000 C   0  0  2  0  0  0  0  0  0  0  0  0
   -0.5404   -1.4578    0.0000 C   0  0  0  0  0  0  0  0  0  0  0  0
   -1.3687   -1.9360    0.0000 C   0  0  0  0  0  0  0  0  0  0  0  0
   -2.1970   -1.4578    0.0000 C   0  0  0  0  0  0  0  0  0  0  0  0
   -2.1970   -0.5014    0.0000 C   0  0  0  0  0  0  0  0  0  0  0  0
   -1.3687   -0.0232    0.0000 C   0  0  1  0  0  0  0  0  0  0  0  0
   -2.1970    0.4550    0.0000 H   0  0  0  0  0  0  0  0  0  0  0  0
   -1.3687    0.9332    0.0000 C   0  0  1  0  0  0  0  0  0  0  0  0
   -3.2163    0.4381    0.0000 H   0  0  0  0  0  0  0  0  0  0  0  0
   -0.6642    1.1505    0.0000 C   0  0  0  0  0  0  0  0  0  0  0  0
   -0.0551    0.7352    0.0000 C   0  0  0  0  0  0  0  0  0  0  0  0
    0.5540    1.1505    0.0000 C   0  0  0  0  0  0  0  0  0  0  0  0
    1.2183    0.8306    0.0000 C   0  0  0  0  0  0  0  0  0  0  0  0
    1.2733    0.0954    0.0000 C   0  0  0  0  0  0  0  0  0  0  0  0
    2.1350   -0.3195    0.0000 O   0  0  0  0  0  0  0  0  0  0  0  0
    0.6642   -0.3199    0.0000 C   0  0  0  0  0  0  0  0  0  0  0  0
    0.0000    0.0000    0.0000 C   0  0  0  0  0  0  0  0  0  0  0  0
  1  2  1  0  0  0  0
  2 12  1  0  0  0  0
  2  3  1  0  0  0  0
  3  4  1  0  0  0  0
  5  4  1  6  0  0  0
  5 10  1  0  0  0  0
  5 21  1  0  0  0  0
  5  6  1  0  0  0  0
  6  7  1  0  0  0  0
  7  8  1  0  0  0  0
  8  9  1  0  0  0  0
  9 10  1  0  0  0  0
 10 11  1  6  0  0  0
 10 12  1  0  0  0  0
 12 13  1  1  0  0  0
 12 14  1  0  0  0  0
 14 15  1  0  0  0  0
 15 21  1  0  0  0  0
 15 16  2  0  0  0  0
 16 17  1  0  0  0  0
 17 18  2  0  0  0  0
 18 19  1  0  0  0  0
 18 20  1  0  0  0  0
 20 21  2  0  0  0  0
M  END
$$$$

 OpenBabel10082008492D

 25 28  0  0  0  0  0  0  0  0999 V2000
   -0.7461   -4.1320    0.0000 Cl  0  0  0  0  0  0  0  0  0  0  0  0
   -1.5823   -3.6492    0.0000 C   0  0  0  0  0  0  0  0  0  0  0  0
   -2.4184   -4.1320    0.0000 C   0  0  0  0  0  0  0  0  0  0  0  0
   -3.2546   -3.6492    0.0000 C   0  0  0  0  0  0  0  0  0  0  0  0
   -3.2546   -2.6837    0.0000 C   0  0  0  0  0  0  0  0  0  0  0  0
   -2.4184   -2.2010    0.0000 C   0  0  0  0  0  0  0  0  0  0  0  0
   -1.5823   -2.6837    0.0000 C   0  0  0  0  0  0  0  0  0  0  0  0
    0.0900   -1.7182    0.0000 C   0  0  0  0  0  0  0  0  0  0  0  0
    0.5728   -2.5544    0.0000 C   0  0  0  0  0  0  0  0  0  0  0  0
    1.5383   -2.5544    0.0000 C   0  0  0  0  0  0  0  0  0  0  0  0
    2.0211   -3.3905    0.0000 C   0  0  0  0  0  0  0  0  0  0  0  0
    1.5383   -4.2267    0.0000 C   0  0  0  0  0  0  0  0  0  0  0  0
    0.5728   -4.2267    0.0000 C   0  0  0  0  0  0  0  0  0  0  0  0
    0.0900   -3.3905    0.0000 C   0  0  0  0  0  0  0  0  0  0  0  0
    0.9262   -1.2354    0.0000 C   0  0  0  0  0  0  0  0  0  0  0  0
    0.9262   -0.2699    0.0000 C   0  0  0  0  0  0  0  0  0  0  0  0
    1.7624    0.2128    0.0000 C   0  0  0  0  0  0  0  0  0  0  0  0
    2.5985   -0.2699    0.0000 C   0  0  0  0  0  0  0  0  0  0  0  0
    2.5985   -1.2354    0.0000 C   0  0  0  0  0  0  0  0  0  0  0  0
    1.7624   -1.7182    0.0000 C   0  0  0  0  0  0  0  0  0  0  0  0
   -0.3927   -0.8820    0.0000 N   0  0  0  0  0  0  0  0  0  0  0  0
   -1.3529   -0.7811    0.0000 C   0  0  0  0  0  0  0  0  0  0  0  0
   -1.5537    0.1633    0.0000 C   0  0  0  0  0  0  0  0  0  0  0  0
   -0.7175    0.6461    0.0000 N   0  0  0  0  0  0  0  0  0  0  0  0
    0.0000    0.0000    0.0000 C   0  0  0  0  0  0  0  0  0  0  0  0
  1  2  1  0  0  0  0
  2  7  1  0  0  0  0
  2  3  2  0  0  0  0
  3  4  1  0  0  0  0
  4  5  2  0  0  0  0
  5  6  1  0  0  0  0
  6  7  2  0  0  0  0
  7  8  1  0  0  0  0
  8  9  1  0  0  0  0
  8 15  1  0  0  0  0
  8 21  1  0  0  0  0
  9 14  1  0  0  0  0
  9 10  2  0  0  0  0
 10 11  1  0  0  0  0
 11 12  2  0  0  0  0
 12 13  1  0  0  0  0
 13 14  2  0  0  0  0
 15 20  1  0  0  0  0
 15 16  2  0  0  0  0
 16 17  1  0  0  0  0
 17 18  2  0  0  0  0
 18 19  1  0  0  0  0
 19 20  2  0  0  0  0
 21 25  1  0  0  0  0
 21 22  1  0  0  0  0
 22 23  2  0  0  0  0
 23 24  1  0  0  0  0
 24 25  2  0  0  0  0
M  END
$$$$

 OpenBabel10082008492D

 20 21  0  0  1  0  0  0  0  0999 V2000
    0.6340    4.0981    0.0000 C   0  0  0  0  0  0  0  0  0  0  0  0
   -0.3660    4.0981    0.0000 N   0  0  0  0  0  0  0  0  0  0  0  0
   -0.8660    4.9641    0.0000 C   0  0  0  0  0  0  0  0  0  0  0  0
   -0.8660    3.2321    0.0000 C   0  0  0  0  0  0  0  0  0  0  0  0
   -0.3660    2.3660    0.0000 C   0  0  0  0  0  0  0  0  0  0  0  0
   -0.8660    1.5000    0.0000 C   0  0  1  0  0  0  0  0  0  0  0  0
   -1.7321    2.0000    0.0000 H   0  0  0  0  0  0  0  0  0  0  0  0
   -1.3660    0.6340    0.0000 C   0  0  0  0  0  0  0  0  0  0  0  0
   -0.8660   -0.2321    0.0000 C   0  0  0  0  0  0  0  0  0  0  0  0
   -1.3660   -1.0981    0.0000 C   0  0  0  0  0  0  0  0  0  0  0  0
   -2.3660   -1.0981    0.0000 C   0  0  0  0  0  0  0  0  0  0  0  0
   -2.8660   -1.9641    0.0000 Cl  0  0  0  0  0  0  0  0  0  0  0  0
   -2.8660   -0.2321    0.0000 C   0  0  0  0  0  0  0  0  0  0  0  0
   -2.3660    0.6340    0.0000 C   0  0  0  0  0  0  0  0  0  0  0  0
   -0.0000    1.0000    0.0000 C   0  0  0  0  0  0  0  0  0  0  0  0
    0.8660    1.5000    0.0000 C   0  0  0  0  0  0  0  0  0  0  0  0
    1.7321    1.0000    0.0000 C   0  0  0  0  0  0  0  0  0  0  0  0
    1.7321   -0.0000    0.0000 C   0  0  0  0  0  0  0  0  0  0  0  0
    0.8660   -0.5000    0.0000 C   0  0  0  0  0  0  0  0  0  0  0  0
   -0.0000   -0.0000    0.0000 N   0  0  0  0  0  0  0  0  0  0  0  0
  1  2  1  0  0  0  0
  2  3  1  0  0  0  0
  2  4  1  0  0  0  0
  4  5  1  0  0  0  0
  5  6  1  0  0  0  0
  6  7  1  1  0  0  0
  6  8  1  0  0  0  0
  6 15  1  0  0  0  0
  8 14  1  0  0  0  0
  8  9  2  0  0  0  0
  9 10  1  0  0  0  0
 10 11  2  0  0  0  0
 11 12  1  0  0  0  0
 11 13  1  0  0  0  0
 13 14  2  0  0  0  0
 15 20  1  0  0  0  0
 15 16  2  0  0  0  0
 16 17  1  0  0  0  0
 17 18  2  0  0  0  0
 18 19  1  0  0  0  0
 19 20  2  0  0  0  0
M  END
$$$$

 OpenBabel10082008492D

 32 34  0  0  0  0  0  0  0  0999 V2000
    0.2788   -1.7601    0.0000 C   0  0  0  0  0  0  0  0  0  0  0  0
   -0.3090   -0.9511    0.0000 C   0  0  0  0  0  0  0  0  0  0  0  0
   -1.3090   -0.9511    0.0000 N   0  0  0  0  0  0  0  0  0  0  0  0
   -1.6180   -0.0000    0.0000 N   0  0  0  0  0  0  0  0  0  0  0  0
   -0.8090    0.5878    0.0000 C   0  0  0  0  0  0  0  0  0  0  0  0
   -0.8090    1.5878    0.0000 C   0  0  0  0  0  0  0  0  0  0  0  0
    0.0570    2.0878    0.0000 O   0  0  0  0  0  0  0  0  0  0  0  0
   -1.6750    2.0878    0.0000 N   0  0  0  0  0  0  0  0  0  0  0  0
   -2.5411    1.5878    0.0000 C   0  0  0  0  0  0  0  0  0  0  0  0
   -3.0411    0.7218    0.0000 C   0  0  0  0  0  0  0  0  0  0  0  0
   -2.0411    0.7218    0.0000 C   0  0  0  0  0  0  0  0  0  0  0  0
   -3.4071    2.0878    0.0000 C   0  0  0  0  0  0  0  0  0  0  0  0
   -4.2731    1.5878    0.0000 N   0  0  0  0  0  0  0  0  0  0  0  0
   -5.1391    2.0878    0.0000 C   0  0  0  0  0  0  0  0  0  0  0  0
   -6.0052    1.5878    0.0000 C   0  0  0  0  0  0  0  0  0  0  0  0
   -6.8712    2.0878    0.0000 O   0  0  0  0  0  0  0  0  0  0  0  0
   -6.0052    0.5878    0.0000 N   0  0  0  0  0  0  0  0  0  0  0  0
   -6.8712    0.0878    0.0000 C   0  0  0  0  0  0  0  0  0  0  0  0
   -6.8712   -0.9122    0.0000 C   0  0  0  0  0  0  0  0  0  0  0  0
   -6.0052   -1.4122    0.0000 C   0  0  0  0  0  0  0  0  0  0  0  0
   -6.0052   -2.4122    0.0000 C   0  0  0  0  0  0  0  0  0  0  0  0
   -6.8712   -2.9122    0.0000 C   0  0  0  0  0  0  0  0  0  0  0  0
   -6.8712   -3.9122    0.0000 F   0  0  0  0  0  0  0  0  0  0  0  0
   -7.7372   -2.4122    0.0000 C   0  0  0  0  0  0  0  0  0  0  0  0
   -7.7372   -1.4122    0.0000 C   0  0  0  0  0  0  0  0  0  0  0  0
   -5.1391    3.0878    0.0000 C   0  0  0  0  0  0  0  0  0  0  0  0
   -6.0052    3.5878    0.0000 O   0  0  0  0  0  0  0  0  0  0  0  0
   -4.2731    3.5878    0.0000 C   0  0  0  0  0  0  0  0  0  0  0  0
   -4.2731    4.5878    0.0000 O   0  0  0  0  0  0  0  0  0  0  0  0
   -3.4071    3.0878    0.0000 N   0  0  0  0  0  0  0  0  0  0  0  0
   -2.5411    3.5878    0.0000 C   0  0  0  0  0  0  0  0  0  0  0  0
   -0.0000   -0.0000    0.0000 O   0  0  0  0  0  0  0  0  0  0  0  0
  1  2  1  0  0  0  0
  2 32  1  0  0  0  0
  2  3  2  0  0  0  0
  3  4  1  0  0  0  0
  4  5  2  0  0  0  0
  5  6  1  0  0  0  0
  5 32  1  0  0  0  0
  6  7  2  0  0  0  0
  6  8  1  0  0  0  0
  8  9  1  0  0  0  0
  9 10  1  0  0  0  0
  9 11  1  0  0  0  0
  9 12  1  0  0  0  0
 12 30  1  0  0  0  0
 12 13  2  0  0  0  0
 13 14  1  0  0  0  0
 14 15  1  0  0  0  0
 14 26  2  0  0  0  0
 15 16  2  0  0  0  0
 15 17  1  0  0  0  0
 17 18  1  0  0  0  0
 18 19  1  0  0  0  0
 19 25  1  0  0  0  0
 19 20  2  0  0  0  0
 20 21  1  0  0  0  0
 21 22  2  0  0  0  0
 22 23  1  0  0  0  0
 22 24  1  0  0  0  0
 24 25  2  0  0  0  0
 26 27  1  0  0  0  0
 26 28  1  0  0  0  0
 28 29  2  0  0  0  0
 28 30  1  0  0  0  0
 30 31  1  0  0  0  0
M  END
$$$$

 OpenBabel10082008492D

 27 29  0  0  0  0  0  0  0  0999 V2000
    1.7213   -0.4612    0.0000 C   0  0  0  0  0  0  0  0  0  0  0  0
    0.7431   -0.6691    0.0000 N   0  0  0  0  0  0  0  0  0  0  0  0
    0.3364   -1.5827    0.0000 C   0  0  0  0  0  0  0  0  0  0  0  0
   -0.6581   -1.4781    0.0000 N   0  0  0  0  0  0  0  0  0  0  0  0
   -0.8660   -0.5000    0.0000 C   0  0  0  0  0  0  0  0  0  0  0  0
   -1.7321    0.0000    0.0000 C   0  0  0  0  0  0  0  0  0  0  0  0
   -2.5981   -0.5000    0.0000 F   0  0  0  0  0  0  0  0  0  0  0  0
   -1.7321    1.0000    0.0000 C   0  0  0  0  0  0  0  0  0  0  0  0
   -2.5981    1.5000    0.0000 N   0  0  0  0  0  0  0  0  0  0  0  0
   -3.4641    1.0000    0.0000 C   0  0  0  0  0  0  0  0  0  0  0  0
   -3.4641   -0.0000    0.0000 C   0  0  0  0  0  0  0  0  0  0  0  0
   -4.3301   -0.5000    0.0000 C   0  0  0  0  0  0  0  0  0  0  0  0
   -5.1962   -0.0000    0.0000 C   0  0  0  0  0  0  0  0  0  0  0  0
   -6.0622   -0.5000    0.0000 Br  0  0  0  0  0  0  0  0  0  0  0  0
   -5.1962    1.0000    0.0000 C   0  0  0  0  0  0  0  0  0  0  0  0
   -4.3301    1.5000    0.0000 C   0  0  0  0  0  0  0  0  0  0  0  0
   -4.3301    2.5000    0.0000 F   0  0  0  0  0  0  0  0  0  0  0  0
   -0.8660    1.5000    0.0000 C   0  0  0  0  0  0  0  0  0  0  0  0
   -0.8660    2.5000    0.0000 C   0  0  0  0  0  0  0  0  0  0  0  0
    0.0000    3.0000    0.0000 O   0  0  0  0  0  0  0  0  0  0  0  0
   -1.7321    3.0000    0.0000 N   0  0  0  0  0  0  0  0  0  0  0  0
   -2.5981    2.5000    0.0000 O   0  0  0  0  0  0  0  0  0  0  0  0
   -3.4641    3.0000    0.0000 C   0  0  0  0  0  0  0  0  0  0  0  0
   -3.4641    4.0000    0.0000 C   0  0  0  0  0  0  0  0  0  0  0  0
   -4.3301    4.5000    0.0000 O   0  0  0  0  0  0  0  0  0  0  0  0
    0.0000    1.0000    0.0000 C   0  0  0  0  0  0  0  0  0  0  0  0
    0.0000   -0.0000    0.0000 C   0  0  0  0  0  0  0  0  0  0  0  0
  1  2  1  0  0  0  0
  2 27  1  0  0  0  0
  2  3  1  0  0  0  0
  3  4  2  0  0  0  0
  4  5  1  0  0  0  0
  5 27  1  0  0  0  0
  5  6  2  0  0  0  0
  6  7  1  0  0  0  0
  6  8  1  0  0  0  0
  8  9  1  0  0  0  0
  8 18  2  0  0  0  0
  9 10  1  0  0  0  0
 10 16  1  0  0  0  0
 10 11  2  0  0  0  0
 11 12  1  0  0  0  0
 12 13  2  0  0  0  0
 13 14  1  0  0  0  0
 13 15  1  0  0  0  0
 15 16  2  0  0  0  0
 16 17  1  0  0  0  0
 18 19  1  0  0  0  0
 18 26  1  0  0  0  0
 19 20  2  0  0  0  0
 19 21  1  0  0  0  0
 21 22  1  0  0  0  0
 22 23  1  0  0  0  0
 23 24  1  0  0  0  0
 24 25  1  0  0  0  0
 26 27  2  0  0  0  0
M  END
$$$$

 OpenBabel10082008492D

 22 24  0  0  1  0  0  0  0  0999 V2000
   -2.8861   -0.8120    0.0000 C   0  0  0  0  0  0  0  0  0  0  0  0
   -2.1530   -1.4922    0.0000 C   0  0  3  0  0  0  0  0  0  0  0  0
   -2.3755   -2.4671    0.0000 C   0  0  0  0  0  0  0  0  0  0  0  0
   -3.3311   -2.7619    0.0000 N   0  0  0  0  0  0  0  0  0  0  0  0
   -4.0642   -2.0817    0.0000 C   0  0  0  0  0  0  0  0  0  0  0  0
   -3.5536   -3.7368    0.0000 C   0  0  0  0  0  0  0  0  0  0  0  0
   -1.1974   -1.1974    0.0000 C   0  0  0  0  0  0  0  0  0  0  0  0
   -0.9749   -0.2225    0.0000 N   0  0  0  0  0  0  0  0  0  0  0  0
   -1.7568    0.4010    0.0000 C   0  0  0  0  0  0  0  0  0  0  0  0
   -2.6228   -0.0990    0.0000 C   0  0  0  0  0  0  0  0  0  0  0  0
   -3.4888    0.4010    0.0000 C   0  0  0  0  0  0  0  0  0  0  0  0
   -3.4888    1.4010    0.0000 C   0  0  0  0  0  0  0  0  0  0  0  0
   -2.6228    1.9010    0.0000 C   0  0  0  0  0  0  0  0  0  0  0  0
   -1.7568    1.4010    0.0000 C   0  0  0  0  0  0  0  0  0  0  0  0
   -0.9749    2.0245    0.0000 C   0  0  0  0  0  0  0  0  0  0  0  0
   -0.0000    1.8019    0.0000 C   0  0  0  0  0  0  0  0  0  0  0  0
    0.4339    0.9010    0.0000 C   0  0  0  0  0  0  0  0  0  0  0  0
    1.4311    0.9757    0.0000 C   0  0  0  0  0  0  0  0  0  0  0  0
    1.9944    0.1495    0.0000 C   0  0  0  0  0  0  0  0  0  0  0  0
    1.5605   -0.7515    0.0000 C   0  0  0  0  0  0  0  0  0  0  0  0
    0.5633   -0.8262    0.0000 C   0  0  0  0  0  0  0  0  0  0  0  0
    0.0000    0.0000    0.0000 C   0  0  0  0  0  0  0  0  0  0  0  0
  1  2  1  0  0  0  0
  2  3  1  0  0  0  0
  2  7  1  0  0  0  0
  3  4  1  0  0  0  0
  4  5  1  0  0  0  0
  4  6  1  0  0  0  0
  7  8  1  0  0  0  0
  8 22  1  0  0  0  0
  8  9  1  0  0  0  0
  9 14  1  0  0  0  0
  9 10  2  0  0  0  0
 10 11  1  0  0  0  0
 11 12  2  0  0  0  0
 12 13  1  0  0  0  0
 13 14  2  0  0  0  0
 14 15  1  0  0  0  0
 15 16  1  0  0  0  0
 16 17  1  0  0  0  0
 17 22  1  0  0  0  0
 17 18  2  0  0  0  0
 18 19  1  0  0  0  0
 19 20  2  0  0  0  0
 20 21  1  0  0  0  0
 21 22  2  0  0  0  0
M  END
$$$$

 OpenBabel10082008492D

 15 15  0  0  1  0  0  0  0  0999 V2000
    2.5981    1.5000    0.0000 C   0  0  0  0  0  0  0  0  0  0  0  0
    1.7321    2.0000    0.0000 C   0  0  0  0  0  0  0  0  0  0  0  0
    1.7321    3.0000    0.0000 C   0  0  0  0  0  0  0  0  0  0  0  0
    0.8660    1.5000    0.0000 C   0  0  0  0  0  0  0  0  0  0  0  0
    0.8660    0.5000    0.0000 C   0  0  0  0  0  0  0  0  0  0  0  0
    1.7321    0.0000    0.0000 C   0  0  0  0  0  0  0  0  0  0  0  0
    1.7321   -1.0000    0.0000 C   0  0  0  0  0  0  0  0  0  0  0  0
    0.8660   -1.5000    0.0000 C   0  0  0  0  0  0  0  0  0  0  0  0
    0.8660   -2.5000    0.0000 C   0  0  3  0  0  0  0  0  0  0  0  0
    0.0000   -3.0000    0.0000 C   0  0  0  0  0  0  0  0  0  0  0  0
    1.7321   -3.0000    0.0000 C   0  0  0  0  0  0  0  0  0  0  0  0
    1.7321   -4.0000    0.0000 O   0  0  0  0  0  0  0  0  0  0  0  0
    2.5981   -2.5000    0.0000 O   0  0  0  0  0  0  0  0  0  0  0  0
    0.0000   -1.0000    0.0000 C   0  0  0  0  0  0  0  0  0  0  0  0
   -0.0000   -0.0000    0.0000 C   0  0  0  0  0  0  0  0  0  0  0  0
  1  2  1  0  0  0  0
  2  3  1  0  0  0  0
  2  4  1  0  0  0  0
  4  5  1  0  0  0  0
  5 15  1  0  0  0  0
  5  6  2  0  0  0  0
  6  7  1  0  0  0  0
  7  8  2  0  0  0  0
  8  9  1  0  0  0  0
  8 14  1  0  0  0  0
  9 10  1  0  0  0  0
  9 11  1  0  0  0  0
 11 12  2  0  0  0  0
 11 13  1  0  0  0  0
 14 15  2  0  0  0  0
M  END
$$$$

 OpenBabel10082008492D

 54 60  0  0  1  0  0  0  0  0999 V2000
    2.4030   -0.2798    0.0000 C   0  0  0  0  0  0  0  0  0  0  0  0
    2.2984    0.7147    0.0000 C   0  0  0  0  0  0  0  0  0  0  0  0
    1.3849    1.1215    0.0000 C   0  0  1  0  0  0  0  0  0  0  0  0
    1.7916    2.0350    0.0000 H   0  0  0  0  0  0  0  0  0  0  0  0
    0.4713    1.5282    0.0000 C   0  0  2  0  0  0  0  0  0  0  0  0
   -0.5232    1.4237    0.0000 H   0  0  0  0  0  0  0  0  0  0  0  0
    0.0646    0.6146    0.0000 C   0  0  0  0  0  0  0  0  0  0  0  0
    0.3668    2.5227    0.0000 O   0  0  0  0  0  0  0  0  0  0  0  0
    0.9781    0.2079    0.0000 N   0  0  0  0  0  0  0  0  0  0  0  0
    1.4781   -0.6581    0.0000 N   0  0  0  0  0  0  0  0  0  0  0  0
    0.8090   -1.4013    0.0000 C   0  0  0  0  0  0  0  0  0  0  0  0
   -0.1045   -0.9945    0.0000 N   0  0  0  0  0  0  0  0  0  0  0  0
   -0.9706   -1.4945    0.0000 C   0  0  0  0  0  0  0  0  0  0  0  0
   -0.9706   -2.4945    0.0000 C   0  0  0  0  0  0  0  0  0  0  0  0
   -1.8366   -2.9945    0.0000 C   0  0  0  0  0  0  0  0  0  0  0  0
   -2.7026   -2.4945    0.0000 C   0  0  0  0  0  0  0  0  0  0  0  0
   -3.5686   -2.9945    0.0000 N   0  0  0  0  0  0  0  0  0  0  0  0
   -3.5686   -3.9945    0.0000 C   0  0  0  0  0  0  0  0  0  0  0  0
   -4.4347   -4.4945    0.0000 C   0  0  0  0  0  0  0  0  0  0  0  0
   -5.3007   -3.9945    0.0000 N   0  0  0  0  0  0  0  0  0  0  0  0
   -6.1667   -4.4945    0.0000 C   0  0  0  0  0  0  0  0  0  0  0  0
   -6.1667   -5.4945    0.0000 C   0  0  0  0  0  0  0  0  0  0  0  0
   -7.0327   -5.9945    0.0000 C   0  0  0  0  0  0  0  0  0  0  0  0
   -7.8988   -5.4945    0.0000 C   0  0  0  0  0  0  0  0  0  0  0  0
   -8.7648   -5.9945    0.0000 O   0  0  0  0  0  0  0  0  0  0  0  0
   -9.6308   -5.4945    0.0000 C   0  0  0  0  0  0  0  0  0  0  0  0
  -10.4968   -5.9945    0.0000 C   0  0  2  0  0  0  0  0  0  0  0  0
  -10.1791   -6.9427    0.0000 H   0  0  0  0  0  0  0  0  0  0  0  0
  -11.2740   -6.6238    0.0000 C   0  0  0  0  0  0  0  0  0  0  0  0
  -12.1126   -6.0792    0.0000 O   0  0  0  0  0  0  0  0  0  0  0  0
  -11.8538   -5.1133    0.0000 C   0  0  1  0  0  0  0  0  0  0  0  0
  -12.0103   -4.1256    0.0000 C   0  0  0  0  0  0  0  0  0  0  0  0
  -11.2331   -3.4963    0.0000 N   0  0  0  0  0  0  0  0  0  0  0  0
  -10.2672   -3.7551    0.0000 C   0  0  0  0  0  0  0  0  0  0  0  0
   -9.7226   -2.9164    0.0000 N   0  0  0  0  0  0  0  0  0  0  0  0
  -10.3519   -2.1393    0.0000 C   0  0  0  0  0  0  0  0  0  0  0  0
  -11.2855   -2.4976    0.0000 N   0  0  0  0  0  0  0  0  0  0  0  0
  -12.7874   -4.7549    0.0000 C   0  0  0  0  0  0  0  0  0  0  0  0
  -13.5646   -5.3842    0.0000 C   0  0  0  0  0  0  0  0  0  0  0  0
  -14.4981   -5.0259    0.0000 C   0  0  0  0  0  0  0  0  0  0  0  0
  -14.6546   -4.0382    0.0000 C   0  0  0  0  0  0  0  0  0  0  0  0
  -15.5882   -3.6798    0.0000 F   0  0  0  0  0  0  0  0  0  0  0  0
  -13.8774   -3.4089    0.0000 C   0  0  0  0  0  0  0  0  0  0  0  0
  -12.9438   -3.7672    0.0000 C   0  0  0  0  0  0  0  0  0  0  0  0
  -12.1667   -3.1379    0.0000 F   0  0  0  0  0  0  0  0  0  0  0  0
  -10.8552   -5.0609    0.0000 C   0  0  0  0  0  0  0  0  0  0  0  0
   -7.8988   -4.4945    0.0000 C   0  0  0  0  0  0  0  0  0  0  0  0
   -7.0327   -3.9945    0.0000 C   0  0  0  0  0  0  0  0  0  0  0  0
   -5.3007   -2.9945    0.0000 C   0  0  0  0  0  0  0  0  0  0  0  0
   -4.4347   -2.4945    0.0000 C   0  0  0  0  0  0  0  0  0  0  0  0
   -2.7026   -1.4945    0.0000 C   0  0  0  0  0  0  0  0  0  0  0  0
   -1.8366   -0.9945    0.0000 C   0  0  0  0  0  0  0  0  0  0  0  0
   -0.0000   -0.0000    0.0000 C   0  0  0  0  0  0  0  0  0  0  0  0
   -0.7431    0.6691    0.0000 O   0  0  0  0  0  0  0  0  0  0  0  0
  1  2  1  0  0  0  0
  2  3  1  0  0  0  0
  3  4  1  1  0  0  0
  3  5  1  0  0  0  0
  3  9  1  0  0  0  0
  5  6  1  1  0  0  0
  5  7  1  0  0  0  0
  5  8  1  0  0  0  0
  9 53  1  0  0  0  0
  9 10  1  0  0  0  0
 10 11  2  0  0  0  0
 11 12  1  0  0  0  0
 12 13  1  0  0  0  0
 12 53  1  0  0  0  0
 13 52  1  0  0  0  0
 13 14  2  0  0  0  0
 14 15  1  0  0  0  0
 15 16  2  0  0  0  0
 16 17  1  0  0  0  0
 16 51  1  0  0  0  0
 17 50  1  0  0  0  0
 17 18  1  0  0  0  0
 18 19  1  0  0  0  0
 19 20  1  0  0  0  0
 20 21  1  0  0  0  0
 20 49  1  0  0  0  0
 21 48  1  0  0  0  0
 21 22  2  0  0  0  0
 22 23  1  0  0  0  0
 23 24  2  0  0  0  0
 24 25  1  0  0  0  0
 24 47  1  0  0  0  0
 25 26  1  0  0  0  0
 26 27  1  0  0  0  0
 27 28  1  1  0  0  0
 27 46  1  0  0  0  0
 27 29  1  0  0  0  0
 29 30  1  0  0  0  0
 30 31  1  0  0  0  0
 31 32  1  6  0  0  0
 31 38  1  0  0  0  0
 31 46  1  0  0  0  0
 32 33  1  0  0  0  0
 33 37  1  0  0  0  0
 33 34  1  0  0  0  0
 34 35  2  0  0  0  0
 35 36  1  0  0  0  0
 36 37  2  0  0  0  0
 38 44  1  0  0  0  0
 38 39  2  0  0  0  0
 39 40  1  0  0  0  0
 40 41  2  0  0  0  0
 41 42  1  0  0  0  0
 41 43  1  0  0  0  0
 43 44  2  0  0  0  0
 44 45  1  0  0  0  0
 47 48  2  0  0  0  0
 49 50  1  0  0  0  0
 51 52  2  0  0  0  0
 53 54  2  0  0  0  0
M  END
$$$$

 OpenBabel10082008492D

 15 15  0  0  1  0  0  0  0  0999 V2000
   -3.4641   -3.0000    0.0000 C   0  0  0  0  0  0  0  0  0  0  0  0
   -2.5981   -3.5000    0.0000 C   0  0  0  0  0  0  0  0  0  0  0  0
   -2.5981   -4.5000    0.0000 C   0  0  0  0  0  0  0  0  0  0  0  0
   -1.7321   -3.0000    0.0000 N   0  0  0  0  0  0  0  0  0  0  0  0
   -1.7321   -2.0000    0.0000 C   0  0  0  0  0  0  0  0  0  0  0  0
   -0.8660   -1.5000    0.0000 C   0  0  3  0  0  0  0  0  0  0  0  0
   -0.0000   -2.0000    0.0000 O   0  0  0  0  0  0  0  0  0  0  0  0
   -0.8660   -0.5000    0.0000 C   0  0  0  0  0  0  0  0  0  0  0  0
   -1.7321   -0.0000    0.0000 C   0  0  0  0  0  0  0  0  0  0  0  0
   -1.7321    1.0000    0.0000 C   0  0  0  0  0  0  0  0  0  0  0  0
   -2.5981    1.5000    0.0000 O   0  0  0  0  0  0  0  0  0  0  0  0
   -0.8660    1.5000    0.0000 C   0  0  0  0  0  0  0  0  0  0  0  0
   -0.0000    1.0000    0.0000 C   0  0  0  0  0  0  0  0  0  0  0  0
    0.8660    1.5000    0.0000 O   0  0  0  0  0  0  0  0  0  0  0  0
    0.0000   -0.0000    0.0000 C   0  0  0  0  0  0  0  0  0  0  0  0
  1  2  1  0  0  0  0
  2  3  1  0  0  0  0
  2  4  1  0  0  0  0
  4  5  1  0  0  0  0
  5  6  1  0  0  0  0
  6  7  1  0  0  0  0
  6  8  1  0  0  0  0
  8 15  1  0  0  0  0
  8  9  2  0  0  0  0
  9 10  1  0  0  0  0
 10 11  1  0  0  0  0
 10 12  2  0  0  0  0
 12 13  1  0  0  0  0
 13 14  1  0  0  0  0
 13 15  2  0  0  0  0
M  END
$$$$

 OpenBabel10082008492D

 21 23  0  0  1  0  0  0  0  0999 V2000
   -1.0182    4.1723    0.0000 C   0  0  0  0  0  0  0  0  0  0  0  0
   -1.3272    3.2213    0.0000 C   0  0  0  0  0  0  0  0  0  0  0  0
   -0.6581    2.4781    0.0000 C   0  0  0  0  0  0  0  0  0  0  0  0
    0.3364    2.5827    0.0000 C   0  0  0  0  0  0  0  0  0  0  0  0
    0.8364    3.4487    0.0000 C   0  0  0  0  0  0  0  0  0  0  0  0
    0.7431    1.6691    0.0000 N   0  0  0  0  0  0  0  0  0  0  0  0
    1.7213    1.4612    0.0000 H   0  0  0  0  0  0  0  0  0  0  0  0
    0.0000    1.0000    0.0000 C   0  0  0  0  0  0  0  0  0  0  0  0
   -0.8660    1.5000    0.0000 C   0  0  0  0  0  0  0  0  0  0  0  0
   -1.7321    1.0000    0.0000 C   0  0  0  0  0  0  0  0  0  0  0  0
   -2.5981    1.5000    0.0000 O   0  0  0  0  0  0  0  0  0  0  0  0
   -1.7321    0.0000    0.0000 C   0  0  3  0  0  0  0  0  0  0  0  0
   -2.5981   -0.5000    0.0000 C   0  0  0  0  0  0  0  0  0  0  0  0
   -3.4641    0.0000    0.0000 N   0  0  0  0  0  0  0  0  0  0  0  0
   -4.3301   -0.5000    0.0000 C   0  0  0  0  0  0  0  0  0  0  0  0
   -5.1962    0.0000    0.0000 C   0  0  0  0  0  0  0  0  0  0  0  0
   -5.1962    1.0000    0.0000 O   0  0  0  0  0  0  0  0  0  0  0  0
   -4.3301    1.5000    0.0000 C   0  0  0  0  0  0  0  0  0  0  0  0
   -3.4641    1.0000    0.0000 C   0  0  0  0  0  0  0  0  0  0  0  0
   -0.8660   -0.5000    0.0000 C   0  0  0  0  0  0  0  0  0  0  0  0
    0.0000   -0.0000    0.0000 C   0  0  0  0  0  0  0  0  0  0  0  0
  1  2  1  0  0  0  0
  2  3  1  0  0  0  0
  3  9  1  0  0  0  0
  3  4  2  0  0  0  0
  4  5  1  0  0  0  0
  4  6  1  0  0  0  0
  6  7  1  0  0  0  0
  6  8  1  0  0  0  0
  8 21  1  0  0  0  0
  8  9  2  0  0  0  0
  9 10  1  0  0  0  0
 10 11  2  0  0  0  0
 10 12  1  0  0  0  0
 12 13  1  0  0  0  0
 12 20  1  0  0  0  0
 13 14  1  0  0  0  0
 14 19  1  0  0  0  0
 14 15  1  0  0  0  0
 15 16  1  0  0  0  0
 16 17  1  0  0  0  0
 17 18  1  0  0  0  0
 18 19  1  0  0  0  0
 20 21  1  0  0  0  0
M  END
$$$$

 OpenBabel10082008492D

 27 29  0  0  1  0  0  0  0  0999 V2000
   -2.2321    0.8660    0.0000 C   0  0  0  0  0  0  0  0  0  0  0  0
   -1.7321    0.0000    0.0000 C   0  0  1  0  0  0  0  0  0  0  0  0
   -2.5981   -0.5000    0.0000 H   0  0  0  0  0  0  0  0  0  0  0  0
   -1.2321   -0.8660    0.0000 N   0  0  0  0  0  0  0  0  0  0  0  0
   -1.7321   -1.7321    0.0000 C   0  0  0  0  0  0  0  0  0  0  0  0
   -2.7321   -1.7321    0.0000 C   0  0  0  0  0  0  0  0  0  0  0  0
   -3.2321   -2.5981    0.0000 C   0  0  0  0  0  0  0  0  0  0  0  0
   -4.2321   -2.5981    0.0000 C   0  0  0  0  0  0  0  0  0  0  0  0
   -4.7321   -1.7321    0.0000 C   0  0  0  0  0  0  0  0  0  0  0  0
   -5.7321   -1.7321    0.0000 C   0  0  0  0  0  0  0  0  0  0  0  0
   -6.2321   -2.5981    0.0000 C   0  0  0  0  0  0  0  0  0  0  0  0
   -5.7321   -3.4641    0.0000 C   0  0  0  0  0  0  0  0  0  0  0  0
   -6.2321   -4.3301    0.0000 C   0  0  0  0  0  0  0  0  0  0  0  0
   -7.0981   -4.8301    0.0000 F   0  0  0  0  0  0  0  0  0  0  0  0
   -7.0981   -3.8301    0.0000 F   0  0  0  0  0  0  0  0  0  0  0  0
   -5.7321   -5.1962    0.0000 F   0  0  0  0  0  0  0  0  0  0  0  0
   -4.7321   -3.4641    0.0000 C   0  0  0  0  0  0  0  0  0  0  0  0
   -0.8660    0.5000    0.0000 C   0  0  0  0  0  0  0  0  0  0  0  0
   -0.8660    1.5000    0.0000 C   0  0  0  0  0  0  0  0  0  0  0  0
    0.0000    2.0000    0.0000 C   0  0  0  0  0  0  0  0  0  0  0  0
    0.8660    1.5000    0.0000 C   0  0  0  0  0  0  0  0  0  0  0  0
    0.8660    0.5000    0.0000 C   0  0  0  0  0  0  0  0  0  0  0  0
    1.7321   -0.0000    0.0000 C   0  0  0  0  0  0  0  0  0  0  0  0
    1.7321   -1.0000    0.0000 C   0  0  0  0  0  0  0  0  0  0  0  0
    0.8660   -1.5000    0.0000 C   0  0  0  0  0  0  0  0  0  0  0  0
    0.0000   -1.0000    0.0000 C   0  0  0  0  0  0  0  0  0  0  0  0
    0.0000   -0.0000    0.0000 C   0  0  0  0  0  0  0  0  0  0  0  0
  1  2  1  0  0  0  0
  2  3  1  1  0  0  0
  2  4  1  0  0  0  0
  2 18  1  0  0  0  0
  4  5  1  0  0  0  0
  5  6  1  0  0  0  0
  6  7  1  0  0  0  0
  7  8  1  0  0  0  0
  8 17  1  0  0  0  0
  8  9  2  0  0  0  0
  9 10  1  0  0  0  0
 10 11  2  0  0  0  0
 11 12  1  0  0  0  0
 12 13  1  0  0  0  0
 12 17  2  0  0  0  0
 13 14  1  0  0  0  0
 13 15  1  0  0  0  0
 13 16  1  0  0  0  0
 18 27  1  0  0  0  0
 18 19  2  0  0  0  0
 19 20  1  0  0  0  0
 20 21  2  0  0  0  0
 21 22  1  0  0  0  0
 22 27  1  0  0  0  0
 22 23  2  0  0  0  0
 23 24  1  0  0  0  0
 24 25  2  0  0  0  0
 25 26  1  0  0  0  0
 26 27  2  0  0  0  0
M  END
$$$$

 OpenBabel10082008492D

 13 13  0  0  1  0  0  0  0  0999 V2000
    2.1202    1.4154    0.0000 C   0  0  0  0  0  0  0  0  0  0  0  0
    1.4511    0.6723    0.0000 C   0  0  0  0  0  0  0  0  0  0  0  0
    1.7601   -0.2788    0.0000 C   0  0  1  0  0  0  0  0  0  0  0  0
    2.7111    0.0302    0.0000 H   0  0  0  0  0  0  0  0  0  0  0  0
    2.0691   -1.2298    0.0000 C   0  0  0  0  0  0  0  0  0  0  0  0
    3.0472   -1.4377    0.0000 N   0  0  0  0  0  0  0  0  0  0  0  0
    1.4000   -1.9730    0.0000 O   0  0  0  0  0  0  0  0  0  0  0  0
    0.8090   -0.5878    0.0000 N   0  0  0  0  0  0  0  0  0  0  0  0
    0.5000   -1.5388    0.0000 C   0  0  0  0  0  0  0  0  0  0  0  0
   -0.5000   -1.5388    0.0000 C   0  0  0  0  0  0  0  0  0  0  0  0
   -0.8090   -0.5878    0.0000 C   0  0  0  0  0  0  0  0  0  0  0  0
    0.0000   -0.0000    0.0000 C   0  0  0  0  0  0  0  0  0  0  0  0
   -0.0000    1.0000    0.0000 O   0  0  0  0  0  0  0  0  0  0  0  0
  1  2  1  0  0  0  0
  2  3  1  0  0  0  0
  3  4  1  6  0  0  0
  3  5  1  0  0  0  0
  3  8  1  0  0  0  0
  5  6  1  0  0  0  0
  5  7  2  0  0  0  0
  8 12  1  0  0  0  0
  8  9  1  0  0  0  0
  9 10  1  0  0  0  0
 10 11  1  0  0  0  0
 11 12  1  0  0  0  0
 12 13  2  0  0  0  0
M  END
$$$$

 OpenBabel10082008492D

  9  6  0  0  0  0  0  0  0  0999 V2000
    2.2321   -0.5000    0.0000 C   0  0  0  0  0  0  0  0  0  0  0  0
    1.3660   -1.0000    0.0000 C   0  0  0  0  0  0  0  0  0  0  0  0
    0.5000   -0.5000    0.0000 O   0  0  0  0  0  0  0  0  0  0  0  0
    1.3660   -2.0000    0.0000 O   0  5  0  0  0  0  0  0  0  0  0  0
    4.0981   -2.0000    0.0000 C   0  0  0  0  0  0  0  0  0  0  0  0
    4.0981   -1.0000    0.0000 C   0  0  0  0  0  0  0  0  0  0  0  0
    4.9641   -0.5000    0.0000 O   0  0  0  0  0  0  0  0  0  0  0  0
    3.2321   -0.5000    0.0000 O   0  5  0  0  0  0  0  0  0  0  0  0
   -0.1494   -0.8178    0.0000 Ca  0  2  0  0  0 15  0  0  0  0  0  0
  1  2  1  0  0  0  0
  2  3  2  0  0  0  0
  2  4  1  0  0  0  0
  5  6  1  0  0  0  0
  6  7  2  0  0  0  0
  6  8  1  0  0  0  0
M  CHG  3   4  -1   8  -1   9   2
M  END
$$$$

 OpenBabel10082008492D

  4  3  0  0  0  0  0  0  0  0999 V2000
    1.7321   -0.0000    0.0000 N   0  0  0  0  0  0  0  0  0  0  0  0
    0.8660    0.5000    0.0000 C   0  0  0  0  0  0  0  0  0  0  0  0
    0.8660    1.5000    0.0000 N   0  0  0  0  0  0  0  0  0  0  0  0
   -0.0000   -0.0000    0.0000 N   0  0  0  0  0  0  0  0  0  0  0  0
  1  2  2  0  0  0  0
  2  3  1  0  0  0  0
  2  4  1  0  0  0  0
M  END
$$$$

 OpenBabel10082008492D

 35 36  0  0  1  0  0  0  0  0999 V2000
   -2.4538    3.3090    0.0000 C   0  0  0  0  0  0  0  0  0  0  0  0
   -2.4538    2.3090    0.0000 C   0  0  0  0  0  0  0  0  0  0  0  0
   -3.3198    1.8090    0.0000 C   0  0  0  0  0  0  0  0  0  0  0  0
   -1.5878    1.8090    0.0000 C   0  0  0  0  0  0  0  0  0  0  0  0
   -1.5878    0.8090    0.0000 C   0  0  2  0  0  0  0  0  0  0  0  0
   -2.5878    0.8090    0.0000 H   0  0  0  0  0  0  0  0  0  0  0  0
   -1.5878   -0.1910    0.0000 N   0  0  0  0  0  0  0  0  0  0  0  0
   -2.4538   -0.6910    0.0000 C   0  0  0  0  0  0  0  0  0  0  0  0
   -3.3198   -0.1910    0.0000 O   0  0  0  0  0  0  0  0  0  0  0  0
   -2.4538   -1.6910    0.0000 C   0  0  0  0  0  0  0  0  0  0  0  0
   -3.3198   -2.1910    0.0000 N   0  0  0  0  0  0  0  0  0  0  0  0
   -4.1859   -1.6910    0.0000 C   0  0  0  0  0  0  0  0  0  0  0  0
   -4.1859   -0.6910    0.0000 O   0  0  0  0  0  0  0  0  0  0  0  0
   -5.0519   -2.1910    0.0000 C   0  0  0  0  0  0  0  0  0  0  0  0
   -5.0519   -3.1910    0.0000 C   0  0  0  0  0  0  0  0  0  0  0  0
   -5.9179   -3.6910    0.0000 C   0  0  0  0  0  0  0  0  0  0  0  0
   -5.9179   -4.6910    0.0000 Cl  0  0  0  0  0  0  0  0  0  0  0  0
   -6.7839   -3.1910    0.0000 C   0  0  0  0  0  0  0  0  0  0  0  0
   -6.7839   -2.1910    0.0000 C   0  0  0  0  0  0  0  0  0  0  0  0
   -5.9179   -1.6910    0.0000 C   0  0  0  0  0  0  0  0  0  0  0  0
   -5.9179   -0.6910    0.0000 Cl  0  0  0  0  0  0  0  0  0  0  0  0
   -0.5878    0.8090    0.0000 B   0  0  0  0  0  0  0  0  0  0  0  0
    0.0000    1.6180    0.0000 O   0  0  0  0  0  0  0  0  0  0  0  0
    0.9511    1.3090    0.0000 C   0  0  0  0  0  0  0  0  0  0  0  0
    1.7601    1.8968    0.0000 O   0  0  0  0  0  0  0  0  0  0  0  0
    0.9511    0.3090    0.0000 C   0  0  0  0  0  0  0  0  0  0  0  0
    1.3578   -0.6045    0.0000 C   0  0  0  0  0  0  0  0  0  0  0  0
    0.7700   -1.4135    0.0000 C   0  0  0  0  0  0  0  0  0  0  0  0
   -0.2245   -1.3090    0.0000 O   0  0  0  0  0  0  0  0  0  0  0  0
    1.1767   -2.3271    0.0000 O   0  0  0  0  0  0  0  0  0  0  0  0
    1.9456    0.2045    0.0000 C   0  0  0  0  0  0  0  0  0  0  0  0
    2.3523   -0.7091    0.0000 C   0  0  0  0  0  0  0  0  0  0  0  0
    1.7645   -1.5181    0.0000 O   0  0  0  0  0  0  0  0  0  0  0  0
    3.3468   -0.8136    0.0000 O   0  0  0  0  0  0  0  0  0  0  0  0
    0.0000   -0.0000    0.0000 O   0  0  0  0  0  0  0  0  0  0  0  0
  1  2  1  0  0  0  0
  2  3  1  0  0  0  0
  2  4  1  0  0  0  0
  4  5  1  0  0  0  0
  5  6  1  6  0  0  0
  5  7  1  0  0  0  0
  5 22  1  0  0  0  0
  7  8  1  0  0  0  0
  8  9  2  0  0  0  0
  8 10  1  0  0  0  0
 10 11  1  0  0  0  0
 11 12  1  0  0  0  0
 12 13  2  0  0  0  0
 12 14  1  0  0  0  0
 14 20  1  0  0  0  0
 14 15  2  0  0  0  0
 15 16  1  0  0  0  0
 16 17  1  0  0  0  0
 16 18  2  0  0  0  0
 18 19  1  0  0  0  0
 19 20  2  0  0  0  0
 20 21  1  0  0  0  0
 22 35  1  0  0  0  0
 22 23  1  0  0  0  0
 23 24  1  0  0  0  0
 24 25  2  0  0  0  0
 24 26  1  0  0  0  0
 26 27  1  0  0  0  0
 26 31  1  0  0  0  0
 26 35  1  0  0  0  0
 27 28  1  0  0  0  0
 28 29  2  0  0  0  0
 28 30  1  0  0  0  0
 31 32  1  0  0  0  0
 32 33  2  0  0  0  0
 32 34  1  0  0  0  0
M  END
$$$$

 OpenBabel10082008492D

 22 24  0  0  0  0  0  0  0  0999 V2000
    0.7202   -3.6067    0.0000 O   0  0  0  0  0  0  0  0  0  0  0  0
    1.3080   -2.7976    0.0000 C   0  0  0  0  0  0  0  0  0  0  0  0
    2.3025   -2.9022    0.0000 O   0  0  0  0  0  0  0  0  0  0  0  0
    0.9013   -1.8841    0.0000 C   0  0  0  0  0  0  0  0  0  0  0  0
   -0.0933   -1.7796    0.0000 C   0  0  0  0  0  0  0  0  0  0  0  0
   -0.5000   -0.8660    0.0000 C   0  0  0  0  0  0  0  0  0  0  0  0
   -1.4781   -0.6581    0.0000 N   0  0  0  0  0  0  0  0  0  0  0  0
   -1.5827    0.3364    0.0000 C   0  0  0  0  0  0  0  0  0  0  0  0
   -2.4487    0.8364    0.0000 C   0  0  0  0  0  0  0  0  0  0  0  0
   -3.3147    0.3364    0.0000 C   0  0  0  0  0  0  0  0  0  0  0  0
   -4.1808    0.8364    0.0000 C   0  0  0  0  0  0  0  0  0  0  0  0
   -4.1808    1.8364    0.0000 C   0  0  0  0  0  0  0  0  0  0  0  0
   -3.3147    2.3364    0.0000 C   0  0  0  0  0  0  0  0  0  0  0  0
   -2.4487    1.8364    0.0000 C   0  0  0  0  0  0  0  0  0  0  0  0
   -0.6691    0.7431    0.0000 C   0  0  0  0  0  0  0  0  0  0  0  0
   -0.4612    1.7213    0.0000 C   0  0  0  0  0  0  0  0  0  0  0  0
   -1.2044    2.3904    0.0000 C   0  0  0  0  0  0  0  0  0  0  0  0
   -0.9965    3.3686    0.0000 C   0  0  0  0  0  0  0  0  0  0  0  0
   -0.0454    3.6776    0.0000 C   0  0  0  0  0  0  0  0  0  0  0  0
    0.6977    3.0085    0.0000 C   0  0  0  0  0  0  0  0  0  0  0  0
    0.4898    2.0303    0.0000 C   0  0  0  0  0  0  0  0  0  0  0  0
    0.0000    0.0000    0.0000 O   0  0  0  0  0  0  0  0  0  0  0  0
  1  2  2  0  0  0  0
  2  3  1  0  0  0  0
  2  4  1  0  0  0  0
  4  5  1  0  0  0  0
  5  6  1  0  0  0  0
  6 22  1  0  0  0  0
  6  7  2  0  0  0  0
  7  8  1  0  0  0  0
  8  9  1  0  0  0  0
  8 15  2  0  0  0  0
  9 14  1  0  0  0  0
  9 10  2  0  0  0  0
 10 11  1  0  0  0  0
 11 12  2  0  0  0  0
 12 13  1  0  0  0  0
 13 14  2  0  0  0  0
 15 16  1  0  0  0  0
 15 22  1  0  0  0  0
 16 21  1  0  0  0  0
 16 17  2  0  0  0  0
 17 18  1  0  0  0  0
 18 19  2  0  0  0  0
 19 20  1  0  0  0  0
 20 21  2  0  0  0  0
M  END
$$$$

 OpenBabel10082008492D

 14 14  0  0  0  0  0  0  0  0999 V2000
   -2.5981   -0.5000    0.0000 C   0  0  0  0  0  0  0  0  0  0  0  0
   -2.5981   -1.5000    0.0000 C   0  0  0  0  0  0  0  0  0  0  0  0
   -1.7321   -2.0000    0.0000 N   0  0  0  0  0  0  0  0  0  0  0  0
   -1.7321   -3.0000    0.0000 C   0  0  0  0  0  0  0  0  0  0  0  0
   -0.8660   -3.5000    0.0000 C   0  0  0  0  0  0  0  0  0  0  0  0
   -0.8660   -1.5000    0.0000 C   0  0  0  0  0  0  0  0  0  0  0  0
    0.0000   -2.0000    0.0000 O   0  0  0  0  0  0  0  0  0  0  0  0
   -0.8660   -0.5000    0.0000 N   0  0  0  0  0  0  0  0  0  0  0  0
   -1.7321   -0.0000    0.0000 C   0  0  0  0  0  0  0  0  0  0  0  0
   -1.7321    1.0000    0.0000 C   0  0  0  0  0  0  0  0  0  0  0  0
   -0.8660    1.5000    0.0000 N   0  0  0  0  0  0  0  0  0  0  0  0
   -0.8660    2.5000    0.0000 C   0  0  0  0  0  0  0  0  0  0  0  0
   -0.0000    1.0000    0.0000 C   0  0  0  0  0  0  0  0  0  0  0  0
    0.0000   -0.0000    0.0000 C   0  0  0  0  0  0  0  0  0  0  0  0
  1  2  1  0  0  0  0
  2  3  1  0  0  0  0
  3  4  1  0  0  0  0
  3  6  1  0  0  0  0
  4  5  1  0  0  0  0
  6  7  2  0  0  0  0
  6  8  1  0  0  0  0
  8 14  1  0  0  0  0
  8  9  1  0  0  0  0
  9 10  1  0  0  0  0
 10 11  1  0  0  0  0
 11 12  1  0  0  0  0
 11 13  1  0  0  0  0
 13 14  1  0  0  0  0
M  END
$$$$

 OpenBabel10082008492D

 35 38  0  0  1  0  0  0  0  0999 V2000
   -0.1285   -4.6045    0.0000 C   0  0  0  0  0  0  0  0  0  0  0  0
   -0.1285   -3.6045    0.0000 N   0  0  0  0  0  0  0  0  0  0  0  0
    0.7375   -3.1045    0.0000 C   0  0  0  0  0  0  0  0  0  0  0  0
   -0.9945   -3.1045    0.0000 C   0  0  0  0  0  0  0  0  0  0  0  0
   -1.8605   -3.6045    0.0000 C   0  0  0  0  0  0  0  0  0  0  0  0
   -2.7266   -3.1045    0.0000 C   0  0  0  0  0  0  0  0  0  0  0  0
   -3.5926   -3.6045    0.0000 C   0  0  0  0  0  0  0  0  0  0  0  0
   -3.5926   -4.6045    0.0000 O   0  0  0  0  0  0  0  0  0  0  0  0
   -4.4586   -3.1045    0.0000 N   0  0  0  0  0  0  0  0  0  0  0  0
   -5.3246   -3.6045    0.0000 C   0  0  0  0  0  0  0  0  0  0  0  0
   -6.1907   -3.1045    0.0000 C   0  0  0  0  0  0  0  0  0  0  0  0
   -7.0567   -3.6045    0.0000 C   0  0  0  0  0  0  0  0  0  0  0  0
   -7.9227   -3.1045    0.0000 C   0  0  0  0  0  0  0  0  0  0  0  0
   -7.9227   -2.1045    0.0000 N   0  0  0  0  0  0  0  0  0  0  0  0
   -8.7888   -1.6045    0.0000 C   0  0  0  0  0  0  0  0  0  0  0  0
   -8.7888   -0.6045    0.0000 C   0  0  0  0  0  0  0  0  0  0  0  0
   -9.6548   -0.1045    0.0000 C   0  0  0  0  0  0  0  0  0  0  0  0
  -10.5208   -0.6045    0.0000 C   0  0  0  0  0  0  0  0  0  0  0  0
  -11.3868   -0.1045    0.0000 F   0  0  0  0  0  0  0  0  0  0  0  0
  -10.5208   -1.6045    0.0000 C   0  0  0  0  0  0  0  0  0  0  0  0
  -11.3868   -2.1045    0.0000 Cl  0  0  0  0  0  0  0  0  0  0  0  0
   -9.6548   -2.1045    0.0000 C   0  0  0  0  0  0  0  0  0  0  0  0
   -8.7888   -3.6045    0.0000 N   0  0  0  0  0  0  0  0  0  0  0  0
   -8.7888   -4.6045    0.0000 C   0  0  0  0  0  0  0  0  0  0  0  0
   -7.9227   -5.1045    0.0000 N   0  0  0  0  0  0  0  0  0  0  0  0
   -7.0567   -4.6045    0.0000 C   0  0  0  0  0  0  0  0  0  0  0  0
   -6.1907   -5.1045    0.0000 C   0  0  0  0  0  0  0  0  0  0  0  0
   -5.3246   -4.6045    0.0000 C   0  0  0  0  0  0  0  0  0  0  0  0
   -4.4586   -5.1045    0.0000 O   0  0  0  0  0  0  0  0  0  0  0  0
   -4.4586   -6.1045    0.0000 C   0  0  1  0  0  0  0  0  0  0  0  0
   -3.5926   -5.6045    0.0000 H   0  0  0  0  0  0  0  0  0  0  0  0
   -5.4531   -6.2091    0.0000 C   0  0  0  0  0  0  0  0  0  0  0  0
   -5.6611   -7.1872    0.0000 C   0  0  0  0  0  0  0  0  0  0  0  0
   -4.7950   -7.6872    0.0000 O   0  0  0  0  0  0  0  0  0  0  0  0
   -4.0519   -7.0181    0.0000 C   0  0  0  0  0  0  0  0  0  0  0  0
  1  2  1  0  0  0  0
  2  3  1  0  0  0  0
  2  4  1  0  0  0  0
  4  5  1  0  0  0  0
  5  6  2  0  0  0  0
  6  7  1  0  0  0  0
  7  8  2  0  0  0  0
  7  9  1  0  0  0  0
  9 10  1  0  0  0  0
 10 28  1  0  0  0  0
 10 11  2  0  0  0  0
 11 12  1  0  0  0  0
 12 26  1  0  0  0  0
 12 13  2  0  0  0  0
 13 14  1  0  0  0  0
 13 23  1  0  0  0  0
 14 15  1  0  0  0  0
 15 22  1  0  0  0  0
 15 16  2  0  0  0  0
 16 17  1  0  0  0  0
 17 18  2  0  0  0  0
 18 19  1  0  0  0  0
 18 20  1  0  0  0  0
 20 21  1  0  0  0  0
 20 22  2  0  0  0  0
 23 24  2  0  0  0  0
 24 25  1  0  0  0  0
 25 26  2  0  0  0  0
 26 27  1  0  0  0  0
 27 28  2  0  0  0  0
 28 29  1  0  0  0  0
 29 30  1  0  0  0  0
 30 31  1  1  0  0  0
 30 35  1  0  0  0  0
 30 32  1  0  0  0  0
 32 33  1  0  0  0  0
 33 34  1  0  0  0  0
 34 35  1  0  0  0  0
M  END
$$$$

 OpenBabel10082008492D

 31 33  0  0  0  0  0  0  0  0999 V2000
   -1.1720   -4.8785    0.0000 C   0  0  0  0  0  0  0  0  0  0  0  0
   -0.6720   -4.0125    0.0000 C   0  0  0  0  0  0  0  0  0  0  0  0
   -1.1720   -3.1465    0.0000 C   0  0  0  0  0  0  0  0  0  0  0  0
   -2.1720   -3.1465    0.0000 C   0  0  0  0  0  0  0  0  0  0  0  0
   -2.6720   -2.2804    0.0000 C   0  0  0  0  0  0  0  0  0  0  0  0
   -3.6666   -2.1759    0.0000 O   0  0  0  0  0  0  0  0  0  0  0  0
   -3.8745   -1.1977    0.0000 C   0  0  0  0  0  0  0  0  0  0  0  0
   -4.7405   -0.6977    0.0000 C   0  0  0  0  0  0  0  0  0  0  0  0
   -4.7405    0.3023    0.0000 C   0  0  0  0  0  0  0  0  0  0  0  0
   -3.8745    0.8023    0.0000 C   0  0  0  0  0  0  0  0  0  0  0  0
   -3.0085    0.3023    0.0000 C   0  0  0  0  0  0  0  0  0  0  0  0
   -3.0085   -0.6977    0.0000 C   0  0  0  0  0  0  0  0  0  0  0  0
   -2.2653   -1.3669    0.0000 C   0  0  0  0  0  0  0  0  0  0  0  0
   -1.2872   -1.1590    0.0000 C   0  0  0  0  0  0  0  0  0  0  0  0
   -0.6180   -1.9021    0.0000 O   0  0  0  0  0  0  0  0  0  0  0  0
   -0.9781   -0.2079    0.0000 C   0  0  0  0  0  0  0  0  0  0  0  0
   -1.6473    0.5352    0.0000 C   0  0  0  0  0  0  0  0  0  0  0  0
   -1.3383    1.4863    0.0000 C   0  0  0  0  0  0  0  0  0  0  0  0
   -2.0074    2.2294    0.0000 I   0  0  0  0  0  0  0  0  0  0  0  0
   -0.3601    1.6942    0.0000 C   0  0  0  0  0  0  0  0  0  0  0  0
   -0.0511    2.6453    0.0000 O   0  0  0  0  0  0  0  0  0  0  0  0
   -0.7202    3.3884    0.0000 C   0  0  0  0  0  0  0  0  0  0  0  0
   -1.6984    3.1805    0.0000 C   0  0  0  0  0  0  0  0  0  0  0  0
   -2.3675    3.9236    0.0000 N   0  0  0  0  0  0  0  0  0  0  0  0
   -2.0585    4.8747    0.0000 C   0  0  0  0  0  0  0  0  0  0  0  0
   -2.7276    5.6178    0.0000 C   0  0  0  0  0  0  0  0  0  0  0  0
   -3.3457    3.7157    0.0000 C   0  0  0  0  0  0  0  0  0  0  0  0
   -4.0148    4.4589    0.0000 C   0  0  0  0  0  0  0  0  0  0  0  0
    0.3090    0.9511    0.0000 C   0  0  0  0  0  0  0  0  0  0  0  0
    1.2872    1.1590    0.0000 I   0  0  0  0  0  0  0  0  0  0  0  0
    0.0000    0.0000    0.0000 C   0  0  0  0  0  0  0  0  0  0  0  0
  1  2  1  0  0  0  0
  2  3  1  0  0  0  0
  3  4  1  0  0  0  0
  4  5  1  0  0  0  0
  5 13  2  0  0  0  0
  5  6  1  0  0  0  0
  6  7  1  0  0  0  0
  7 12  1  0  0  0  0
  7  8  2  0  0  0  0
  8  9  1  0  0  0  0
  9 10  2  0  0  0  0
 10 11  1  0  0  0  0
 11 12  2  0  0  0  0
 12 13  1  0  0  0  0
 13 14  1  0  0  0  0
 14 15  2  0  0  0  0
 14 16  1  0  0  0  0
 16 31  1  0  0  0  0
 16 17  2  0  0  0  0
 17 18  1  0  0  0  0
 18 19  1  0  0  0  0
 18 20  2  0  0  0  0
 20 21  1  0  0  0  0
 20 29  1  0  0  0  0
 21 22  1  0  0  0  0
 22 23  1  0  0  0  0
 23 24  1  0  0  0  0
 24 25  1  0  0  0  0
 24 27  1  0  0  0  0
 25 26  1  0  0  0  0
 27 28  1  0  0  0  0
 29 30  1  0  0  0  0
 29 31  2  0  0  0  0
M  END
$$$$

 OpenBabel10082008492D

 33 37  0  0  1  0  0  0  0  0999 V2000
    1.7321    0.0000    0.0000 C   0  0  0  0  0  0  0  0  0  0  0  0
    1.7321    1.0000    0.0000 C   0  0  0  0  0  0  0  0  0  0  0  0
    0.8660    1.5000    0.0000 C   0  0  2  0  0  0  0  0  0  0  0  0
    0.3660    0.6340    0.0000 H   0  0  0  0  0  0  0  0  0  0  0  0
    1.3660    2.3660    0.0000 N   0  0  0  0  0  0  0  0  0  0  0  0
    2.3660    2.3660    0.0000 C   0  0  0  0  0  0  0  0  0  0  0  0
    2.8660    3.2321    0.0000 N   0  0  0  0  0  0  0  0  0  0  0  0
    3.8660    3.2321    0.0000 C   0  0  0  0  0  0  0  0  0  0  0  0
    4.3660    2.3660    0.0000 N   0  0  0  0  0  0  0  0  0  0  0  0
    3.8660    1.5000    0.0000 C   0  0  0  0  0  0  0  0  0  0  0  0
    4.1750    0.5489    0.0000 N   0  0  0  0  0  0  0  0  0  0  0  0
    5.1261    0.2399    0.0000 H   0  0  0  0  0  0  0  0  0  0  0  0
    3.3660   -0.0388    0.0000 C   0  0  0  0  0  0  0  0  0  0  0  0
    2.5570    0.5489    0.0000 N   0  0  0  0  0  0  0  0  0  0  0  0
    2.8660    1.5000    0.0000 C   0  0  0  0  0  0  0  0  0  0  0  0
    0.0000    2.0000    0.0000 C   0  0  0  0  0  0  0  0  0  0  0  0
    0.0000    3.0000    0.0000 N   0  0  0  0  0  0  0  0  0  0  0  0
   -0.8660    3.5000    0.0000 C   0  0  0  0  0  0  0  0  0  0  0  0
   -0.8660    4.5000    0.0000 C   0  0  0  0  0  0  0  0  0  0  0  0
   -1.7321    5.0000    0.0000 C   0  0  0  0  0  0  0  0  0  0  0  0
   -2.5981    4.5000    0.0000 C   0  0  0  0  0  0  0  0  0  0  0  0
   -2.5981    3.5000    0.0000 C   0  0  0  0  0  0  0  0  0  0  0  0
   -3.4641    3.0000    0.0000 F   0  0  0  0  0  0  0  0  0  0  0  0
   -1.7321    3.0000    0.0000 C   0  0  0  0  0  0  0  0  0  0  0  0
   -1.7321    2.0000    0.0000 C   0  0  0  0  0  0  0  0  0  0  0  0
   -2.5981    1.5000    0.0000 O   0  0  0  0  0  0  0  0  0  0  0  0
   -0.8660    1.5000    0.0000 N   0  0  0  0  0  0  0  0  0  0  0  0
   -0.8660    0.5000    0.0000 C   0  0  0  0  0  0  0  0  0  0  0  0
   -1.7321    0.0000    0.0000 C   0  0  0  0  0  0  0  0  0  0  0  0
   -1.7321   -1.0000    0.0000 C   0  0  0  0  0  0  0  0  0  0  0  0
   -0.8660   -1.5000    0.0000 C   0  0  0  0  0  0  0  0  0  0  0  0
   -0.0000   -1.0000    0.0000 C   0  0  0  0  0  0  0  0  0  0  0  0
    0.0000   -0.0000    0.0000 C   0  0  0  0  0  0  0  0  0  0  0  0
  1  2  1  0  0  0  0
  2  3  1  0  0  0  0
  3  4  1  6  0  0  0
  3  5  1  0  0  0  0
  3 16  1  0  0  0  0
  5  6  1  0  0  0  0
  6 15  1  0  0  0  0
  6  7  2  0  0  0  0
  7  8  1  0  0  0  0
  8  9  2  0  0  0  0
  9 10  1  0  0  0  0
 10 15  2  0  0  0  0
 10 11  1  0  0  0  0
 11 12  1  0  0  0  0
 11 13  1  0  0  0  0
 13 14  2  0  0  0  0
 14 15  1  0  0  0  0
 16 27  1  0  0  0  0
 16 17  2  0  0  0  0
 17 18  1  0  0  0  0
 18 24  1  0  0  0  0
 18 19  2  0  0  0  0
 19 20  1  0  0  0  0
 20 21  2  0  0  0  0
 21 22  1  0  0  0  0
 22 23  1  0  0  0  0
 22 24  2  0  0  0  0
 24 25  1  0  0  0  0
 25 26  2  0  0  0  0
 25 27  1  0  0  0  0
 27 28  1  0  0  0  0
 28 33  1  0  0  0  0
 28 29  2  0  0  0  0
 29 30  1  0  0  0  0
 30 31  2  0  0  0  0
 31 32  1  0  0  0  0
 32 33  2  0  0  0  0
M  END
$$$$

 OpenBabel10082008492D

 17 18  0  0  1  0  0  0  0  0999 V2000
    0.8660    2.5000    0.0000 C   0  0  0  0  0  0  0  0  0  0  0  0
    0.0000    3.0000    0.0000 O   0  0  0  0  0  0  0  0  0  0  0  0
   -0.8660    2.5000    0.0000 C   0  0  0  0  0  0  0  0  0  0  0  0
   -1.7321    3.0000    0.0000 O   0  0  0  0  0  0  0  0  0  0  0  0
   -0.8660    1.5000    0.0000 C   0  0  3  0  0  0  0  0  0  0  0  0
   -1.7321    1.0000    0.0000 C   0  0  0  0  0  0  0  0  0  0  0  0
   -1.7321    0.0000    0.0000 C   0  0  0  0  0  0  0  0  0  0  0  0
   -2.5981   -0.5000    0.0000 C   0  0  0  0  0  0  0  0  0  0  0  0
   -3.4641    0.0000    0.0000 C   0  0  0  0  0  0  0  0  0  0  0  0
   -3.4641    1.0000    0.0000 C   0  0  0  0  0  0  0  0  0  0  0  0
   -2.5981    1.5000    0.0000 C   0  0  0  0  0  0  0  0  0  0  0  0
    0.0000    1.0000    0.0000 C   0  0  3  0  0  0  0  0  0  0  0  0
    0.8660    1.5000    0.0000 C   0  0  0  0  0  0  0  0  0  0  0  0
    1.7321    1.0000    0.0000 C   0  0  0  0  0  0  0  0  0  0  0  0
    1.7321    0.0000    0.0000 C   0  0  0  0  0  0  0  0  0  0  0  0
    0.8660   -0.5000    0.0000 C   0  0  0  0  0  0  0  0  0  0  0  0
   -0.0000   -0.0000    0.0000 N   0  0  0  0  0  0  0  0  0  0  0  0
  1  2  1  0  0  0  0
  2  3  1  0  0  0  0
  3  4  2  0  0  0  0
  3  5  1  0  0  0  0
  5  6  1  0  0  0  0
  5 12  1  0  0  0  0
  6 11  1  0  0  0  0
  6  7  2  0  0  0  0
  7  8  1  0  0  0  0
  8  9  2  0  0  0  0
  9 10  1  0  0  0  0
 10 11  2  0  0  0  0
 12 17  1  0  0  0  0
 12 13  1  0  0  0  0
 13 14  1  0  0  0  0
 14 15  1  0  0  0  0
 15 16  1  0  0  0  0
 16 17  1  0  0  0  0
M  END
$$$$

 OpenBabel10082008492D

 39 42  0  0  1  0  0  0  0  0999 V2000
    1.3388   -6.4717    0.0000 C   0  0  0  0  0  0  0  0  0  0  0  0
    1.0298   -5.5206    0.0000 C   0  0  0  0  0  0  0  0  0  0  0  0
    0.2866   -4.8515    0.0000 C   0  0  0  0  0  0  0  0  0  0  0  0
    0.0787   -5.8296    0.0000 N   0  0  0  0  0  0  0  0  0  0  0  0
    1.6989   -4.7775    0.0000 C   0  0  0  0  0  0  0  0  0  0  0  0
    2.6771   -4.9854    0.0000 O   0  0  0  0  0  0  0  0  0  0  0  0
    1.3899   -3.8264    0.0000 N   0  0  0  0  0  0  0  0  0  0  0  0
    2.0590   -3.0833    0.0000 C   0  0  2  0  0  0  0  0  0  0  0  0
    2.8022   -3.7524    0.0000 H   0  0  0  0  0  0  0  0  0  0  0  0
    2.7282   -2.3401    0.0000 C   0  0  0  0  0  0  0  0  0  0  0  0
    3.7063   -2.5480    0.0000 C   0  0  0  0  0  0  0  0  0  0  0  0
    4.1130   -3.4616    0.0000 C   0  0  0  0  0  0  0  0  0  0  0  0
    5.1076   -3.3570    0.0000 N   0  0  0  0  0  0  0  0  0  0  0  0
    5.7767   -4.1002    0.0000 H   0  0  0  0  0  0  0  0  0  0  0  0
    5.3155   -2.3789    0.0000 C   0  0  0  0  0  0  0  0  0  0  0  0
    6.1815   -1.8789    0.0000 C   0  0  0  0  0  0  0  0  0  0  0  0
    6.1815   -0.8789    0.0000 C   0  0  0  0  0  0  0  0  0  0  0  0
    5.3155   -0.3789    0.0000 C   0  0  0  0  0  0  0  0  0  0  0  0
    4.4495   -0.8789    0.0000 C   0  0  0  0  0  0  0  0  0  0  0  0
    4.4495   -1.8789    0.0000 C   0  0  0  0  0  0  0  0  0  0  0  0
    1.3159   -2.4141    0.0000 C   0  0  0  0  0  0  0  0  0  0  0  0
    1.5238   -1.4360    0.0000 O   0  0  0  0  0  0  0  0  0  0  0  0
    0.3648   -2.7231    0.0000 N   0  0  0  0  0  0  0  0  0  0  0  0
   -0.3783   -2.0540    0.0000 C   0  0  2  0  0  0  0  0  0  0  0  0
    0.2908   -1.3109    0.0000 H   0  0  0  0  0  0  0  0  0  0  0  0
   -1.1215   -1.3849    0.0000 C   0  0  0  0  0  0  0  0  0  0  0  0
   -0.9135   -0.4067    0.0000 C   0  0  0  0  0  0  0  0  0  0  0  0
   -1.5827    0.3364    0.0000 C   0  0  0  0  0  0  0  0  0  0  0  0
   -1.0827    1.2024    0.0000 N   0  0  0  0  0  0  0  0  0  0  0  0
   -1.4894    2.1160    0.0000 H   0  0  0  0  0  0  0  0  0  0  0  0
   -0.1045    0.9945    0.0000 C   0  0  0  0  0  0  0  0  0  0  0  0
    0.7045    1.5823    0.0000 C   0  0  0  0  0  0  0  0  0  0  0  0
    1.6180    1.1756    0.0000 C   0  0  0  0  0  0  0  0  0  0  0  0
    1.7226    0.1810    0.0000 C   0  0  0  0  0  0  0  0  0  0  0  0
    0.9135   -0.4067    0.0000 C   0  0  0  0  0  0  0  0  0  0  0  0
   -0.0000   -0.0000    0.0000 C   0  0  0  0  0  0  0  0  0  0  0  0
   -1.0474   -2.7972    0.0000 N   0  0  0  0  0  0  0  0  0  0  0  0
   -2.0256   -2.5892    0.0000 C   0  0  0  0  0  0  0  0  0  0  0  0
   -2.3346   -1.6382    0.0000 O   0  0  0  0  0  0  0  0  0  0  0  0
  1  2  1  0  0  0  0
  2  3  1  0  0  0  0
  2  4  1  0  0  0  0
  2  5  1  0  0  0  0
  5  6  2  0  0  0  0
  5  7  1  0  0  0  0
  7  8  1  0  0  0  0
  8  9  1  6  0  0  0
  8 10  1  0  0  0  0
  8 21  1  0  0  0  0
 10 11  1  0  0  0  0
 11 20  1  0  0  0  0
 11 12  2  0  0  0  0
 12 13  1  0  0  0  0
 13 14  1  0  0  0  0
 13 15  1  0  0  0  0
 15 20  1  0  0  0  0
 15 16  2  0  0  0  0
 16 17  1  0  0  0  0
 17 18  2  0  0  0  0
 18 19  1  0  0  0  0
 19 20  2  0  0  0  0
 21 22  2  0  0  0  0
 21 23  1  0  0  0  0
 23 24  1  0  0  0  0
 24 25  1  6  0  0  0
 24 26  1  0  0  0  0
 24 37  1  0  0  0  0
 26 27  1  0  0  0  0
 27 36  1  0  0  0  0
 27 28  2  0  0  0  0
 28 29  1  0  0  0  0
 29 30  1  0  0  0  0
 29 31  1  0  0  0  0
 31 36  1  0  0  0  0
 31 32  2  0  0  0  0
 32 33  1  0  0  0  0
 33 34  2  0  0  0  0
 34 35  1  0  0  0  0
 35 36  2  0  0  0  0
 37 38  1  0  0  0  0
 38 39  2  0  0  0  0
M  END
$$$$

 OpenBabel10082008492D

 43 47  0  0  1  0  0  0  0  0999 V2000
    3.6191    4.5023    0.0000 C   0  0  0  0  0  0  0  0  0  0  0  0
    2.7712    4.9919    0.0000 C   0  0  0  0  0  0  0  0  0  0  0  0
    1.9232    4.5023    0.0000 O   0  0  0  0  0  0  0  0  0  0  0  0
    1.0752    4.9919    0.0000 C   0  0  0  0  0  0  0  0  0  0  0  0
    1.0752    5.9710    0.0000 O   0  0  0  0  0  0  0  0  0  0  0  0
    0.2272    4.5023    0.0000 N   0  0  0  0  0  0  0  0  0  0  0  0
    0.2272    3.5231    0.0000 C   0  0  2  0  0  0  0  0  0  0  0  0
   -0.6208    4.0127    0.0000 H   0  0  0  0  0  0  0  0  0  0  0  0
   -0.2624    2.6751    0.0000 C   0  0  0  0  0  0  0  0  0  0  0  0
    0.2272    1.8271    0.0000 C   0  0  0  0  0  0  0  0  0  0  0  0
    1.2064    1.8271    0.0000 C   0  0  2  0  0  0  0  0  0  0  0  0
    0.7168    0.9792    0.0000 H   0  0  0  0  0  0  0  0  0  0  0  0
    1.6960    2.6751    0.0000 C   0  0  1  0  0  0  0  0  0  0  0  0
    2.1855    3.5231    0.0000 H   0  0  0  0  0  0  0  0  0  0  0  0
    1.2064    3.5231    0.0000 C   0  0  0  0  0  0  0  0  0  0  0  0
    2.6751    2.6751    0.0000 C   0  0  0  0  0  0  0  0  0  0  0  0
    3.1647    1.8271    0.0000 C   0  0  1  0  0  0  0  0  0  0  0  0
    3.2671    2.8010    0.0000 H   0  0  0  0  0  0  0  0  0  0  0  0
    4.1225    1.6236    0.0000 C   0  0  0  0  0  0  0  0  0  0  0  0
    4.8501    2.2788    0.0000 O   0  0  0  0  0  0  0  0  0  0  0  0
    4.2248    0.6498    0.0000 O   0  0  0  0  0  0  0  0  0  0  0  0
    3.3303    0.2515    0.0000 C   0  0  2  0  0  0  0  0  0  0  0  0
    2.6751   -0.4762    0.0000 H   0  0  0  0  0  0  0  0  0  0  0  0
    3.6329   -0.6797    0.0000 C   0  0  0  0  0  0  0  0  0  0  0  0
    2.6751    0.9792    0.0000 C   0  0  1  0  0  0  0  0  0  0  0  0
    1.8830    0.4036    0.0000 H   0  0  0  0  0  0  0  0  0  0  0  0
    1.6960    0.9792    0.0000 C   0  0  1  0  0  0  0  0  0  0  0  0
    0.8480    0.4896    0.0000 H   0  0  0  0  0  0  0  0  0  0  0  0
    1.6960   -0.9792    0.0000 C   0  0  0  0  0  0  0  0  0  0  0  0
    0.8480   -1.4688    0.0000 C   0  0  0  0  0  0  0  0  0  0  0  0
    0.8480   -2.4479    0.0000 C   0  0  0  0  0  0  0  0  0  0  0  0
    0.0000   -2.9375    0.0000 C   0  0  0  0  0  0  0  0  0  0  0  0
    0.0000   -3.9167    0.0000 C   0  0  0  0  0  0  0  0  0  0  0  0
    0.8480   -4.4063    0.0000 C   0  0  0  0  0  0  0  0  0  0  0  0
    0.8480   -5.3854    0.0000 C   0  0  0  0  0  0  0  0  0  0  0  0
    0.0000   -5.8750    0.0000 C   0  0  0  0  0  0  0  0  0  0  0  0
    0.0000   -6.8542    0.0000 C   0  0  0  0  0  0  0  0  0  0  0  0
    0.8480   -7.3438    0.0000 C   0  0  0  0  0  0  0  0  0  0  0  0
    1.6960   -6.8542    0.0000 C   0  0  0  0  0  0  0  0  0  0  0  0
    2.5439   -7.3438    0.0000 F   0  0  0  0  0  0  0  0  0  0  0  0
    1.6960   -5.8750    0.0000 C   0  0  0  0  0  0  0  0  0  0  0  0
    1.6960   -3.9167    0.0000 C   0  0  0  0  0  0  0  0  0  0  0  0
    1.6960   -2.9375    0.0000 N   0  0  0  0  0  0  0  0  0  0  0  0
  1  2  1  0  0  0  0
  2  3  1  0  0  0  0
  3  4  1  0  0  0  0
  4  5  2  0  0  0  0
  4  6  1  0  0  0  0
  6  7  1  0  0  0  0
  7  8  1  6  0  0  0
  7 15  1  0  0  0  0
  7  9  1  0  0  0  0
  9 10  1  0  0  0  0
 10 11  1  0  0  0  0
 11 12  1  1  0  0  0
 11 27  1  0  0  0  0
 11 13  1  0  0  0  0
 13 14  1  6  0  0  0
 13 15  1  0  0  0  0
 13 16  1  0  0  0  0
 16 17  1  0  0  0  0
 17 18  1  6  0  0  0
 17 25  1  0  0  0  0
 17 19  1  0  0  0  0
 19 20  2  0  0  0  0
 19 21  1  0  0  0  0
 21 22  1  0  0  0  0
 22 23  1  1  0  0  0
 22 24  1  0  0  0  0
 22 25  1  0  0  0  0
 25 26  1  6  0  0  0
 25 27  1  0  0  0  0
 27 28  1  6  0  0  0
 27 29  1  0  0  0  0
 29 30  2  0  0  0  0
 30 31  1  0  0  0  0
 31 43  1  0  0  0  0
 31 32  2  0  0  0  0
 32 33  1  0  0  0  0
 33 34  2  0  0  0  0
 34 35  1  0  0  0  0
 34 42  1  0  0  0  0
 35 41  1  0  0  0  0
 35 36  2  0  0  0  0
 36 37  1  0  0  0  0
 37 38  2  0  0  0  0
 38 39  1  0  0  0  0
 39 40  1  0  0  0  0
 39 41  2  0  0  0  0
 42 43  2  0  0  0  0
M  END
$$$$

 OpenBabel10082008492D

 50 54  0  0  1  0  0  0  0  0999 V2000
   -3.7796    6.6388    0.0000 C   0  0  0  0  0  0  0  0  0  0  0  0
   -4.6456    6.1388    0.0000 C   0  0  0  0  0  0  0  0  0  0  0  0
   -3.7796    5.6388    0.0000 C   0  0  0  0  0  0  0  0  0  0  0  0
   -5.1456    7.0048    0.0000 C   0  0  0  0  0  0  0  0  0  0  0  0
   -5.1456    5.2728    0.0000 N   0  0  0  0  0  0  0  0  0  0  0  0
   -4.6456    4.4067    0.0000 C   0  0  0  0  0  0  0  0  0  0  0  0
   -3.6456    4.4067    0.0000 O   0  0  0  0  0  0  0  0  0  0  0  0
   -5.1456    3.5407    0.0000 C   0  0  2  0  0  0  0  0  0  0  0  0
   -4.1456    3.5407    0.0000 H   0  0  0  0  0  0  0  0  0  0  0  0
   -6.0116    4.0407    0.0000 C   0  0  0  0  0  0  0  0  0  0  0  0
   -6.8776    3.5407    0.0000 N   0  0  0  0  0  0  0  0  0  0  0  0
   -7.7437    4.0407    0.0000 C   0  0  0  0  0  0  0  0  0  0  0  0
   -8.6097    3.5407    0.0000 C   0  0  0  0  0  0  0  0  0  0  0  0
   -9.4757    4.0407    0.0000 C   0  0  0  0  0  0  0  0  0  0  0  0
  -10.3417    3.5407    0.0000 C   0  0  0  0  0  0  0  0  0  0  0  0
  -10.3417    2.5407    0.0000 C   0  0  0  0  0  0  0  0  0  0  0  0
   -9.4757    2.0407    0.0000 N   0  0  0  0  0  0  0  0  0  0  0  0
   -8.6097    2.5407    0.0000 C   0  0  0  0  0  0  0  0  0  0  0  0
   -6.8776    2.5407    0.0000 C   0  0  0  0  0  0  0  0  0  0  0  0
   -6.0116    2.0407    0.0000 C   0  0  0  0  0  0  0  0  0  0  0  0
   -5.1456    2.5407    0.0000 N   0  0  0  0  0  0  0  0  0  0  0  0
   -4.2796    2.0407    0.0000 C   0  0  0  0  0  0  0  0  0  0  0  0
   -4.2796    1.0407    0.0000 C   0  0  1  0  0  0  0  0  0  0  0  0
   -5.2796    1.0407    0.0000 H   0  0  0  0  0  0  0  0  0  0  0  0
   -4.7796    0.1747    0.0000 O   0  0  0  0  0  0  0  0  0  0  0  0
   -3.4135    0.5407    0.0000 C   0  0  0  0  0  0  0  0  0  0  0  0
   -3.4135   -0.4593    0.0000 C   0  0  1  0  0  0  0  0  0  0  0  0
   -4.4135   -0.4593    0.0000 H   0  0  0  0  0  0  0  0  0  0  0  0
   -3.4135   -1.4593    0.0000 C   0  0  0  0  0  0  0  0  0  0  0  0
   -4.2796   -1.9593    0.0000 C   0  0  0  0  0  0  0  0  0  0  0  0
   -4.2796   -2.9593    0.0000 C   0  0  0  0  0  0  0  0  0  0  0  0
   -5.1456   -3.4593    0.0000 C   0  0  0  0  0  0  0  0  0  0  0  0
   -6.0116   -2.9593    0.0000 C   0  0  0  0  0  0  0  0  0  0  0  0
   -6.0116   -1.9593    0.0000 C   0  0  0  0  0  0  0  0  0  0  0  0
   -5.1456   -1.4593    0.0000 C   0  0  0  0  0  0  0  0  0  0  0  0
   -2.4135   -0.4593    0.0000 C   0  0  0  0  0  0  0  0  0  0  0  0
   -1.9135   -1.3253    0.0000 O   0  0  0  0  0  0  0  0  0  0  0  0
   -1.9135    0.4067    0.0000 N   0  0  0  0  0  0  0  0  0  0  0  0
   -0.9135    0.4067    0.0000 C   0  0  1  0  0  0  0  0  0  0  0  0
   -1.4135   -0.4593    0.0000 H   0  0  0  0  0  0  0  0  0  0  0  0
   -0.8090    1.4013    0.0000 C   0  0  0  0  0  0  0  0  0  0  0  0
   -1.4781    2.1444    0.0000 C   0  0  0  0  0  0  0  0  0  0  0  0
   -1.1691    3.0955    0.0000 C   0  0  0  0  0  0  0  0  0  0  0  0
   -0.1910    3.3034    0.0000 C   0  0  0  0  0  0  0  0  0  0  0  0
    0.4781    2.5602    0.0000 C   0  0  0  0  0  0  0  0  0  0  0  0
    0.1691    1.6092    0.0000 C   0  0  0  0  0  0  0  0  0  0  0  0
    0.6691    0.7431    0.0000 C   0  0  0  0  0  0  0  0  0  0  0  0
    0.0000   -0.0000    0.0000 C   0  0  1  0  0  0  0  0  0  0  0  0
   -0.3090   -0.9511    0.0000 H   0  0  0  0  0  0  0  0  0  0  0  0
    0.6691   -0.7431    0.0000 O   0  0  0  0  0  0  0  0  0  0  0  0
  1  2  1  0  0  0  0
  2  3  1  0  0  0  0
  2  4  1  0  0  0  0
  2  5  1  0  0  0  0
  5  6  1  0  0  0  0
  6  7  2  0  0  0  0
  6  8  1  0  0  0  0
  8  9  1  6  0  0  0
  8 21  1  0  0  0  0
  8 10  1  0  0  0  0
 10 11  1  0  0  0  0
 11 12  1  0  0  0  0
 11 19  1  0  0  0  0
 12 13  1  0  0  0  0
 13 18  1  0  0  0  0
 13 14  2  0  0  0  0
 14 15  1  0  0  0  0
 15 16  2  0  0  0  0
 16 17  1  0  0  0  0
 17 18  2  0  0  0  0
 19 20  1  0  0  0  0
 20 21  1  0  0  0  0
 21 22  1  0  0  0  0
 22 23  1  0  0  0  0
 23 24  1  1  0  0  0
 23 25  1  0  0  0  0
 23 26  1  0  0  0  0
 26 27  1  0  0  0  0
 27 28  1  1  0  0  0
 27 29  1  0  0  0  0
 27 36  1  0  0  0  0
 29 30  1  0  0  0  0
 30 35  1  0  0  0  0
 30 31  2  0  0  0  0
 31 32  1  0  0  0  0
 32 33  2  0  0  0  0
 33 34  1  0  0  0  0
 34 35  2  0  0  0  0
 36 37  2  0  0  0  0
 36 38  1  0  0  0  0
 38 39  1  0  0  0  0
 39 40  1  6  0  0  0
 39 48  1  0  0  0  0
 39 41  1  0  0  0  0
 41 46  1  0  0  0  0
 41 42  2  0  0  0  0
 42 43  1  0  0  0  0
 43 44  2  0  0  0  0
 44 45  1  0  0  0  0
 45 46  2  0  0  0  0
 46 47  1  0  0  0  0
 47 48  1  0  0  0  0
 48 49  1  6  0  0  0
 48 50  1  0  0  0  0
M  END
$$$$

 OpenBabel10082008492D

 24 27  0  0  0  0  0  0  0  0999 V2000
    2.9955    2.2817    0.0000 O   0  0  0  0  0  0  0  0  0  0  0  0
    2.2524    2.9508    0.0000 C   0  0  0  0  0  0  0  0  0  0  0  0
    2.4603    3.9290    0.0000 O   0  0  0  0  0  0  0  0  0  0  0  0
    1.3013    2.6418    0.0000 C   0  0  0  0  0  0  0  0  0  0  0  0
    1.0934    1.6637    0.0000 S   0  0  0  0  0  0  0  0  0  0  0  0
    1.8366    0.9945    0.0000 C   0  0  0  0  0  0  0  0  0  0  0  0
    2.8147    1.2024    0.0000 N   0  0  0  0  0  0  0  0  0  0  0  0
    3.3147    0.3364    0.0000 N   0  0  0  0  0  0  0  0  0  0  0  0
    2.6456   -0.4067    0.0000 C   0  0  0  0  0  0  0  0  0  0  0  0
    2.8535   -1.3849    0.0000 Br  0  0  0  0  0  0  0  0  0  0  0  0
    1.7321   -0.0000    0.0000 N   0  0  0  0  0  0  0  0  0  0  0  0
    0.8660   -0.5000    0.0000 C   0  0  0  0  0  0  0  0  0  0  0  0
    0.8660   -1.5000    0.0000 C   0  0  0  0  0  0  0  0  0  0  0  0
   -0.0000   -2.0000    0.0000 C   0  0  0  0  0  0  0  0  0  0  0  0
   -0.8660   -1.5000    0.0000 C   0  0  0  0  0  0  0  0  0  0  0  0
   -1.7321   -2.0000    0.0000 C   0  0  0  0  0  0  0  0  0  0  0  0
   -2.2321   -2.8660    0.0000 C   0  0  0  0  0  0  0  0  0  0  0  0
   -2.7321   -2.0000    0.0000 C   0  0  0  0  0  0  0  0  0  0  0  0
   -0.8660   -0.5000    0.0000 C   0  0  0  0  0  0  0  0  0  0  0  0
   -1.7321    0.0000    0.0000 C   0  0  0  0  0  0  0  0  0  0  0  0
   -1.7321    1.0000    0.0000 C   0  0  0  0  0  0  0  0  0  0  0  0
   -0.8660    1.5000    0.0000 C   0  0  0  0  0  0  0  0  0  0  0  0
    0.0000    1.0000    0.0000 C   0  0  0  0  0  0  0  0  0  0  0  0
    0.0000    0.0000    0.0000 C   0  0  0  0  0  0  0  0  0  0  0  0
  1  2  2  0  0  0  0
  2  3  1  0  0  0  0
  2  4  1  0  0  0  0
  4  5  1  0  0  0  0
  5  6  1  0  0  0  0
  6 11  1  0  0  0  0
  6  7  2  0  0  0  0
  7  8  1  0  0  0  0
  8  9  2  0  0  0  0
  9 10  1  0  0  0  0
  9 11  1  0  0  0  0
 11 12  1  0  0  0  0
 12 24  1  0  0  0  0
 12 13  2  0  0  0  0
 13 14  1  0  0  0  0
 14 15  2  0  0  0  0
 15 16  1  0  0  0  0
 15 19  1  0  0  0  0
 16 18  1  0  0  0  0
 16 17  1  0  0  0  0
 17 18  1  0  0  0  0
 19 24  1  0  0  0  0
 19 20  2  0  0  0  0
 20 21  1  0  0  0  0
 21 22  2  0  0  0  0
 22 23  1  0  0  0  0
 23 24  2  0  0  0  0
M  END
$$$$

 OpenBabel10082008492D

 19 20  0  0  1  0  0  0  0  0999 V2000
    2.5981   -0.5000    0.0000 C   0  0  0  0  0  0  0  0  0  0  0  0
    1.7321   -0.0000    0.0000 C   0  0  3  0  0  0  0  0  0  0  0  0
    1.7321    1.0000    0.0000 C   0  0  0  0  0  0  0  0  0  0  0  0
    2.5981    1.5000    0.0000 O   0  0  0  0  0  0  0  0  0  0  0  0
    0.8660    1.5000    0.0000 O   0  0  0  0  0  0  0  0  0  0  0  0
    0.8660   -0.5000    0.0000 C   0  0  0  0  0  0  0  0  0  0  0  0
    0.8660   -1.5000    0.0000 C   0  0  0  0  0  0  0  0  0  0  0  0
    0.0000   -2.0000    0.0000 C   0  0  0  0  0  0  0  0  0  0  0  0
   -0.8660   -1.5000    0.0000 C   0  0  0  0  0  0  0  0  0  0  0  0
   -0.8660   -0.5000    0.0000 C   0  0  0  0  0  0  0  0  0  0  0  0
   -1.7321   -0.0000    0.0000 C   0  0  0  0  0  0  0  0  0  0  0  0
   -1.7321    1.0000    0.0000 O   0  0  0  0  0  0  0  0  0  0  0  0
   -2.5981   -0.5000    0.0000 C   0  0  0  0  0  0  0  0  0  0  0  0
   -2.5981   -1.5000    0.0000 C   0  0  0  0  0  0  0  0  0  0  0  0
   -3.4641   -2.0000    0.0000 C   0  0  0  0  0  0  0  0  0  0  0  0
   -4.3301   -1.5000    0.0000 C   0  0  0  0  0  0  0  0  0  0  0  0
   -4.3301   -0.5000    0.0000 C   0  0  0  0  0  0  0  0  0  0  0  0
   -3.4641   -0.0000    0.0000 C   0  0  0  0  0  0  0  0  0  0  0  0
   -0.0000   -0.0000    0.0000 C   0  0  0  0  0  0  0  0  0  0  0  0
  1  2  1  0  0  0  0
  2  3  1  0  0  0  0
  2  6  1  0  0  0  0
  3  4  2  0  0  0  0
  3  5  1  0  0  0  0
  6 19  1  0  0  0  0
  6  7  2  0  0  0  0
  7  8  1  0  0  0  0
  8  9  2  0  0  0  0
  9 10  1  0  0  0  0
 10 11  1  0  0  0  0
 10 19  2  0  0  0  0
 11 12  2  0  0  0  0
 11 13  1  0  0  0  0
 13 18  1  0  0  0  0
 13 14  2  0  0  0  0
 14 15  1  0  0  0  0
 15 16  2  0  0  0  0
 16 17  1  0  0  0  0
 17 18  2  0  0  0  0
M  END
$$$$

 OpenBabel10082008492D

 25 26  0  0  0  0  0  0  0  0999 V2000
    3.4641   -1.0000    0.0000 C   0  0  0  0  0  0  0  0  0  0  0  0
    3.4641    0.0000    0.0000 C   0  0  0  0  0  0  0  0  0  0  0  0
    4.3301    0.5000    0.0000 C   0  0  0  0  0  0  0  0  0  0  0  0
    2.5981    0.5000    0.0000 O   0  0  0  0  0  0  0  0  0  0  0  0
    1.7321    0.0000    0.0000 C   0  0  0  0  0  0  0  0  0  0  0  0
    0.8660    0.5000    0.0000 O   0  0  0  0  0  0  0  0  0  0  0  0
    1.7321   -1.0000    0.0000 C   0  0  0  0  0  0  0  0  0  0  0  0
    2.2321   -1.8660    0.0000 C   0  0  0  0  0  0  0  0  0  0  0  0
    2.7321   -1.0000    0.0000 C   0  0  0  0  0  0  0  0  0  0  0  0
    0.8660   -1.5000    0.0000 O   0  0  0  0  0  0  0  0  0  0  0  0
    0.0000   -1.0000    0.0000 C   0  0  0  0  0  0  0  0  0  0  0  0
   -0.8660   -1.5000    0.0000 C   0  0  0  0  0  0  0  0  0  0  0  0
   -1.7321   -1.0000    0.0000 C   0  0  0  0  0  0  0  0  0  0  0  0
   -1.7321   -0.0000    0.0000 C   0  0  0  0  0  0  0  0  0  0  0  0
   -2.5981    0.5000    0.0000 C   0  0  0  0  0  0  0  0  0  0  0  0
   -2.5981    1.5000    0.0000 O   0  0  0  0  0  0  0  0  0  0  0  0
   -3.4641   -0.0000    0.0000 C   0  0  0  0  0  0  0  0  0  0  0  0
   -3.4641   -1.0000    0.0000 C   0  0  0  0  0  0  0  0  0  0  0  0
   -4.3301   -1.5000    0.0000 C   0  0  0  0  0  0  0  0  0  0  0  0
   -5.1962   -1.0000    0.0000 C   0  0  0  0  0  0  0  0  0  0  0  0
   -6.0622   -1.5000    0.0000 Cl  0  0  0  0  0  0  0  0  0  0  0  0
   -5.1962   -0.0000    0.0000 C   0  0  0  0  0  0  0  0  0  0  0  0
   -4.3301    0.5000    0.0000 C   0  0  0  0  0  0  0  0  0  0  0  0
   -0.8660    0.5000    0.0000 C   0  0  0  0  0  0  0  0  0  0  0  0
   -0.0000   -0.0000    0.0000 C   0  0  0  0  0  0  0  0  0  0  0  0
  1  2  1  0  0  0  0
  2  3  1  0  0  0  0
  2  4  1  0  0  0  0
  4  5  1  0  0  0  0
  5  6  2  0  0  0  0
  5  7  1  0  0  0  0
  7  8  1  0  0  0  0
  7  9  1  0  0  0  0
  7 10  1  0  0  0  0
 10 11  1  0  0  0  0
 11 25  1  0  0  0  0
 11 12  2  0  0  0  0
 12 13  1  0  0  0  0
 13 14  2  0  0  0  0
 14 15  1  0  0  0  0
 14 24  1  0  0  0  0
 15 16  2  0  0  0  0
 15 17  1  0  0  0  0
 17 23  1  0  0  0  0
 17 18  2  0  0  0  0
 18 19  1  0  0  0  0
 19 20  2  0  0  0  0
 20 21  1  0  0  0  0
 20 22  1  0  0  0  0
 22 23  2  0  0  0  0
 24 25  2  0  0  0  0
M  END
$$$$

 OpenBabel10082008492D

 39 41  0  0  0  0  0  0  0  0999 V2000
    5.1962   -7.0000    0.0000 O   0  0  0  0  0  0  0  0  0  0  0  0
    5.1962   -6.0000    0.0000 C   0  0  0  0  0  0  0  0  0  0  0  0
    6.0622   -5.5000    0.0000 C   0  0  0  0  0  0  0  0  0  0  0  0
    6.9282   -6.0000    0.0000 C   0  0  0  0  0  0  0  0  0  0  0  0
    7.7942   -5.5000    0.0000 C   0  0  0  0  0  0  0  0  0  0  0  0
    7.7942   -4.5000    0.0000 C   0  0  0  0  0  0  0  0  0  0  0  0
    6.9282   -4.0000    0.0000 C   0  0  0  0  0  0  0  0  0  0  0  0
    6.9282   -3.0000    0.0000 C   0  0  0  0  0  0  0  0  0  0  0  0
    7.7942   -2.5000    0.0000 C   0  0  0  0  0  0  0  0  0  0  0  0
    8.6603   -3.0000    0.0000 C   0  0  0  0  0  0  0  0  0  0  0  0
    8.6603   -4.0000    0.0000 C   0  0  0  0  0  0  0  0  0  0  0  0
    4.3301   -5.5000    0.0000 O   0  0  0  0  0  0  0  0  0  0  0  0
    4.3301   -4.5000    0.0000 C   0  0  0  0  0  0  0  0  0  0  0  0
    3.4641   -4.0000    0.0000 C   0  0  0  0  0  0  0  0  0  0  0  0
    2.5981   -4.5000    0.0000 C   0  0  0  0  0  0  0  0  0  0  0  0
    2.5981   -5.5000    0.0000 O   0  0  0  0  0  0  0  0  0  0  0  0
    1.7321   -6.0000    0.0000 C   0  0  0  0  0  0  0  0  0  0  0  0
    1.7321   -7.0000    0.0000 O   0  0  0  0  0  0  0  0  0  0  0  0
    0.8660   -5.5000    0.0000 C   0  0  0  0  0  0  0  0  0  0  0  0
   -0.0000   -6.0000    0.0000 C   0  0  0  0  0  0  0  0  0  0  0  0
   -0.0000   -7.0000    0.0000 C   0  0  0  0  0  0  0  0  0  0  0  0
   -0.8660   -7.5000    0.0000 C   0  0  0  0  0  0  0  0  0  0  0  0
   -1.7321   -7.0000    0.0000 C   0  0  0  0  0  0  0  0  0  0  0  0
   -2.5981   -7.5000    0.0000 C   0  0  0  0  0  0  0  0  0  0  0  0
   -2.5981   -8.5000    0.0000 C   0  0  0  0  0  0  0  0  0  0  0  0
   -1.7321   -9.0000    0.0000 C   0  0  0  0  0  0  0  0  0  0  0  0
   -0.8660   -8.5000    0.0000 C   0  0  0  0  0  0  0  0  0  0  0  0
    3.4641   -3.0000    0.0000 O   0  0  0  0  0  0  0  0  0  0  0  0
    2.5981   -2.5000    0.0000 C   0  0  0  0  0  0  0  0  0  0  0  0
    1.7321   -3.0000    0.0000 O   0  0  0  0  0  0  0  0  0  0  0  0
    2.5981   -1.5000    0.0000 C   0  0  0  0  0  0  0  0  0  0  0  0
    1.7321   -1.0000    0.0000 C   0  0  0  0  0  0  0  0  0  0  0  0
    1.7321   -0.0000    0.0000 C   0  0  0  0  0  0  0  0  0  0  0  0
    0.8660    0.5000    0.0000 C   0  0  0  0  0  0  0  0  0  0  0  0
    0.8660    1.5000    0.0000 C   0  0  0  0  0  0  0  0  0  0  0  0
    0.0000    2.0000    0.0000 C   0  0  0  0  0  0  0  0  0  0  0  0
   -0.8660    1.5000    0.0000 C   0  0  0  0  0  0  0  0  0  0  0  0
   -0.8660    0.5000    0.0000 C   0  0  0  0  0  0  0  0  0  0  0  0
   -0.0000   -0.0000    0.0000 C   0  0  0  0  0  0  0  0  0  0  0  0
  1  2  2  0  0  0  0
  2  3  1  0  0  0  0
  2 12  1  0  0  0  0
  3  4  1  0  0  0  0
  4  5  1  0  0  0  0
  5  6  1  0  0  0  0
  6 11  1  0  0  0  0
  6  7  2  0  0  0  0
  7  8  1  0  0  0  0
  8  9  2  0  0  0  0
  9 10  1  0  0  0  0
 10 11  2  0  0  0  0
 12 13  1  0  0  0  0
 13 14  1  0  0  0  0
 14 15  1  0  0  0  0
 14 28  1  0  0  0  0
 15 16  1  0  0  0  0
 16 17  1  0  0  0  0
 17 18  2  0  0  0  0
 17 19  1  0  0  0  0
 19 20  1  0  0  0  0
 20 21  1  0  0  0  0
 21 22  1  0  0  0  0
 22 27  1  0  0  0  0
 22 23  2  0  0  0  0
 23 24  1  0  0  0  0
 24 25  2  0  0  0  0
 25 26  1  0  0  0  0
 26 27  2  0  0  0  0
 28 29  1  0  0  0  0
 29 30  2  0  0  0  0
 29 31  1  0  0  0  0
 31 32  1  0  0  0  0
 32 33  1  0  0  0  0
 33 34  1  0  0  0  0
 34 39  1  0  0  0  0
 34 35  2  0  0  0  0
 35 36  1  0  0  0  0
 36 37  2  0  0  0  0
 37 38  1  0  0  0  0
 38 39  2  0  0  0  0
M  END
$$$$

 OpenBabel10082008492D

 32 34  0  0  0  0  0  0  0  0999 V2000
    0.0000    2.0000    0.0000 C   0  0  0  0  0  0  0  0  0  0  0  0
   -0.8660    1.5000    0.0000 O   0  0  0  0  0  0  0  0  0  0  0  0
   -0.8660    0.5000    0.0000 C   0  0  0  0  0  0  0  0  0  0  0  0
   -1.7321    0.0000    0.0000 C   0  0  0  0  0  0  0  0  0  0  0  0
   -1.7321   -1.0000    0.0000 C   0  0  0  0  0  0  0  0  0  0  0  0
   -0.8660   -1.5000    0.0000 C   0  0  0  0  0  0  0  0  0  0  0  0
   -0.8660   -2.5000    0.0000 N   0  0  0  0  0  0  0  0  0  0  0  0
   -1.7321   -3.0000    0.0000 C   0  0  0  0  0  0  0  0  0  0  0  0
   -1.7321   -4.0000    0.0000 O   0  0  0  0  0  0  0  0  0  0  0  0
   -2.5981   -2.5000    0.0000 C   0  0  0  0  0  0  0  0  0  0  0  0
   -2.5981   -1.5000    0.0000 C   0  0  0  0  0  0  0  0  0  0  0  0
   -3.4641   -1.0000    0.0000 C   0  0  0  0  0  0  0  0  0  0  0  0
   -4.3301   -1.5000    0.0000 C   0  0  0  0  0  0  0  0  0  0  0  0
   -5.1962   -1.0000    0.0000 C   0  0  0  0  0  0  0  0  0  0  0  0
   -6.0622   -1.5000    0.0000 N   0  0  0  0  0  0  0  0  0  0  0  0
   -5.1962    0.0000    0.0000 N   0  0  0  0  0  0  0  0  0  0  0  0
   -6.0622    0.5000    0.0000 C   0  0  0  0  0  0  0  0  0  0  0  0
   -4.3301    0.5000    0.0000 C   0  0  0  0  0  0  0  0  0  0  0  0
   -4.3301   -2.5000    0.0000 C   0  0  0  0  0  0  0  0  0  0  0  0
   -3.4641   -3.0000    0.0000 C   0  0  0  0  0  0  0  0  0  0  0  0
   -0.0000   -1.0000    0.0000 C   0  0  0  0  0  0  0  0  0  0  0  0
    0.8660   -1.5000    0.0000 C   0  0  0  0  0  0  0  0  0  0  0  0
    0.8660   -2.5000    0.0000 O   0  0  0  0  0  0  0  0  0  0  0  0
    1.7321   -1.0000    0.0000 N   0  0  0  0  0  0  0  0  0  0  0  0
    1.7321   -0.0000    0.0000 C   0  0  0  0  0  0  0  0  0  0  0  0
    0.8660    0.5000    0.0000 C   0  0  0  0  0  0  0  0  0  0  0  0
    0.8660    1.5000    0.0000 C   0  0  0  0  0  0  0  0  0  0  0  0
    1.7321    2.0000    0.0000 C   0  0  0  0  0  0  0  0  0  0  0  0
    1.7321    3.0000    0.0000 Cl  0  0  0  0  0  0  0  0  0  0  0  0
    2.5981    1.5000    0.0000 C   0  0  0  0  0  0  0  0  0  0  0  0
    2.5981    0.5000    0.0000 N   0  0  0  0  0  0  0  0  0  0  0  0
    0.0000   -0.0000    0.0000 C   0  0  0  0  0  0  0  0  0  0  0  0
  1  2  1  0  0  0  0
  2  3  1  0  0  0  0
  3 32  1  0  0  0  0
  3  4  2  0  0  0  0
  4  5  1  0  0  0  0
  5  6  2  0  0  0  0
  6  7  1  0  0  0  0
  6 21  1  0  0  0  0
  7  8  1  0  0  0  0
  8  9  2  0  0  0  0
  8 10  1  0  0  0  0
 10 20  1  0  0  0  0
 10 11  2  0  0  0  0
 11 12  1  0  0  0  0
 12 13  2  0  0  0  0
 13 14  1  0  0  0  0
 13 19  1  0  0  0  0
 14 15  2  0  0  0  0
 14 16  1  0  0  0  0
 16 17  1  0  0  0  0
 16 18  1  0  0  0  0
 19 20  2  0  0  0  0
 21 22  1  0  0  0  0
 21 32  2  0  0  0  0
 22 23  2  0  0  0  0
 22 24  1  0  0  0  0
 24 25  1  0  0  0  0
 25 31  1  0  0  0  0
 25 26  2  0  0  0  0
 26 27  1  0  0  0  0
 27 28  2  0  0  0  0
 28 29  1  0  0  0  0
 28 30  1  0  0  0  0
 30 31  2  0  0  0  0
M  END
$$$$

 OpenBabel10082008492D

 27 29  0  0  0  0  0  0  0  0999 V2000
   -2.5981    1.5000    0.0000 C   0  0  0  0  0  0  0  0  0  0  0  0
   -2.5981    0.5000    0.0000 C   0  0  0  0  0  0  0  0  0  0  0  0
   -3.4641    0.0000    0.0000 O   0  0  0  0  0  0  0  0  0  0  0  0
   -1.7321    0.0000    0.0000 O   0  0  0  0  0  0  0  0  0  0  0  0
   -0.8660    0.5000    0.0000 C   0  0  0  0  0  0  0  0  0  0  0  0
   -0.8660    1.5000    0.0000 C   0  0  0  0  0  0  0  0  0  0  0  0
    0.0000    2.0000    0.0000 C   0  0  0  0  0  0  0  0  0  0  0  0
    0.8660    1.5000    0.0000 C   0  0  0  0  0  0  0  0  0  0  0  0
    1.7321    2.0000    0.0000 C   0  0  0  0  0  0  0  0  0  0  0  0
    2.5981    1.5000    0.0000 C   0  0  0  0  0  0  0  0  0  0  0  0
    3.4641    2.0000    0.0000 C   0  0  0  0  0  0  0  0  0  0  0  0
    4.3301    1.5000    0.0000 C   0  0  0  0  0  0  0  0  0  0  0  0
    4.3301    0.5000    0.0000 C   0  0  0  0  0  0  0  0  0  0  0  0
    5.1962   -0.0000    0.0000 O   0  0  0  0  0  0  0  0  0  0  0  0
    6.0622    0.5000    0.0000 C   0  0  0  0  0  0  0  0  0  0  0  0
    6.9282   -0.0000    0.0000 C   0  0  0  0  0  0  0  0  0  0  0  0
    6.0622    1.5000    0.0000 O   0  0  0  0  0  0  0  0  0  0  0  0
    3.4641   -0.0000    0.0000 C   0  0  0  0  0  0  0  0  0  0  0  0
    2.5981    0.5000    0.0000 C   0  0  0  0  0  0  0  0  0  0  0  0
    1.7321    3.0000    0.0000 C   0  0  0  0  0  0  0  0  0  0  0  0
    0.8660    3.5000    0.0000 C   0  0  0  0  0  0  0  0  0  0  0  0
    0.8660    4.5000    0.0000 C   0  0  0  0  0  0  0  0  0  0  0  0
    1.7321    5.0000    0.0000 C   0  0  0  0  0  0  0  0  0  0  0  0
    2.5981    4.5000    0.0000 C   0  0  0  0  0  0  0  0  0  0  0  0
    2.5981    3.5000    0.0000 N   0  0  0  0  0  0  0  0  0  0  0  0
    0.8660    0.5000    0.0000 C   0  0  0  0  0  0  0  0  0  0  0  0
    0.0000   -0.0000    0.0000 C   0  0  0  0  0  0  0  0  0  0  0  0
  1  2  1  0  0  0  0
  2  3  2  0  0  0  0
  2  4  1  0  0  0  0
  4  5  1  0  0  0  0
  5 27  1  0  0  0  0
  5  6  2  0  0  0  0
  6  7  1  0  0  0  0
  7  8  2  0  0  0  0
  8  9  1  0  0  0  0
  8 26  1  0  0  0  0
  9 10  1  0  0  0  0
  9 20  1  0  0  0  0
 10 19  1  0  0  0  0
 10 11  2  0  0  0  0
 11 12  1  0  0  0  0
 12 13  2  0  0  0  0
 13 14  1  0  0  0  0
 13 18  1  0  0  0  0
 14 15  1  0  0  0  0
 15 16  1  0  0  0  0
 15 17  2  0  0  0  0
 18 19  2  0  0  0  0
 20 25  1  0  0  0  0
 20 21  2  0  0  0  0
 21 22  1  0  0  0  0
 22 23  2  0  0  0  0
 23 24  1  0  0  0  0
 24 25  2  0  0  0  0
 26 27  2  0  0  0  0
M  END
$$$$

 OpenBabel10082008492D

 30 33  0  0  1  0  0  0  0  0999 V2000
   -2.5494    0.8156    0.0000 O   0  0  0  0  0  0  0  0  0  0  0  0
   -1.7723    0.1863    0.0000 C   0  0  0  0  0  0  0  0  0  0  0  0
   -1.9287   -0.8014    0.0000 N   0  0  0  0  0  0  0  0  0  0  0  0
   -2.8623   -1.1598    0.0000 C   0  0  0  0  0  0  0  0  0  0  0  0
   -3.6394   -0.5305    0.0000 C   0  0  1  0  0  0  0  0  0  0  0  0
   -3.1773    0.3563    0.0000 H   0  0  0  0  0  0  0  0  0  0  0  0
   -4.3085    0.2127    0.0000 C   0  0  0  0  0  0  0  0  0  0  0  0
   -5.2221   -0.1941    0.0000 N   0  0  0  0  0  0  0  0  0  0  0  0
   -6.0881    0.3059    0.0000 C   0  0  0  0  0  0  0  0  0  0  0  0
   -6.0881    1.3059    0.0000 C   0  0  0  0  0  0  0  0  0  0  0  0
   -6.9541    1.8059    0.0000 C   0  0  0  0  0  0  0  0  0  0  0  0
   -7.8202    1.3059    0.0000 C   0  0  0  0  0  0  0  0  0  0  0  0
   -8.6862    1.8059    0.0000 N   0  0  0  0  0  0  0  0  0  0  0  0
   -8.6862    2.8059    0.0000 C   0  0  0  0  0  0  0  0  0  0  0  0
   -9.5522    3.3059    0.0000 C   0  0  0  0  0  0  0  0  0  0  0  0
  -10.4182    2.8059    0.0000 O   0  0  0  0  0  0  0  0  0  0  0  0
  -10.4182    1.8059    0.0000 C   0  0  0  0  0  0  0  0  0  0  0  0
   -9.5522    1.3059    0.0000 C   0  0  0  0  0  0  0  0  0  0  0  0
   -9.5522    0.3059    0.0000 O   0  0  0  0  0  0  0  0  0  0  0  0
   -7.8202    0.3059    0.0000 C   0  0  0  0  0  0  0  0  0  0  0  0
   -6.9541   -0.1941    0.0000 C   0  0  0  0  0  0  0  0  0  0  0  0
   -5.1176   -1.1886    0.0000 C   0  0  0  0  0  0  0  0  0  0  0  0
   -5.8607   -1.8577    0.0000 O   0  0  0  0  0  0  0  0  0  0  0  0
   -4.1394   -1.3965    0.0000 O   0  0  0  0  0  0  0  0  0  0  0  0
   -0.8387    0.5446    0.0000 C   0  0  0  0  0  0  0  0  0  0  0  0
   -0.5799    1.5106    0.0000 C   0  0  0  0  0  0  0  0  0  0  0  0
    0.4188    1.5629    0.0000 C   0  0  0  0  0  0  0  0  0  0  0  0
    0.7771    0.6293    0.0000 C   0  0  0  0  0  0  0  0  0  0  0  0
    1.7431    0.3705    0.0000 Cl  0  0  0  0  0  0  0  0  0  0  0  0
    0.0000   -0.0000    0.0000 S   0  0  0  0  0  0  0  0  0  0  0  0
  1  2  2  0  0  0  0
  2  3  1  0  0  0  0
  2 25  1  0  0  0  0
  3  4  1  0  0  0  0
  4  5  1  0  0  0  0
  5  6  1  1  0  0  0
  5 24  1  0  0  0  0
  5  7  1  0  0  0  0
  7  8  1  0  0  0  0
  8  9  1  0  0  0  0
  8 22  1  0  0  0  0
  9 21  1  0  0  0  0
  9 10  2  0  0  0  0
 10 11  1  0  0  0  0
 11 12  2  0  0  0  0
 12 13  1  0  0  0  0
 12 20  1  0  0  0  0
 13 18  1  0  0  0  0
 13 14  1  0  0  0  0
 14 15  1  0  0  0  0
 15 16  1  0  0  0  0
 16 17  1  0  0  0  0
 17 18  1  0  0  0  0
 18 19  2  0  0  0  0
 20 21  2  0  0  0  0
 22 23  2  0  0  0  0
 22 24  1  0  0  0  0
 25 30  1  0  0  0  0
 25 26  2  0  0  0  0
 26 27  1  0  0  0  0
 27 28  2  0  0  0  0
 28 29  1  0  0  0  0
 28 30  1  0  0  0  0
M  END
$$$$

 OpenBabel10082008492D

 33 37  0  0  1  0  0  0  0  0999 V2000
   -0.7515    1.5605    0.0000 C   0  0  0  0  0  0  0  0  0  0  0  0
    0.0747    0.9972    0.0000 C   0  0  0  0  0  0  0  0  0  0  0  0
    0.9757    1.4311    0.0000 C   0  0  0  0  0  0  0  0  0  0  0  0
    1.8019    0.8678    0.0000 C   0  0  0  0  0  0  0  0  0  0  0  0
    1.7272   -0.1294    0.0000 C   0  0  0  0  0  0  0  0  0  0  0  0
    2.5534   -0.6928    0.0000 N   0  0  0  0  0  0  0  0  0  0  0  0
    3.4948   -0.3554    0.0000 N   0  0  0  0  0  0  0  0  0  0  0  0
    4.1066   -1.1465    0.0000 C   0  0  0  0  0  0  0  0  0  0  0  0
    3.5432   -1.9727    0.0000 C   0  0  0  0  0  0  0  0  0  0  0  0
    2.5834   -1.6923    0.0000 N   0  0  0  0  0  0  0  0  0  0  0  0
    0.8262   -0.5633    0.0000 C   0  0  0  0  0  0  0  0  0  0  0  0
    0.7515   -1.5605    0.0000 C   0  0  0  0  0  0  0  0  0  0  0  0
    1.5777   -2.1238    0.0000 O   0  0  0  0  0  0  0  0  0  0  0  0
   -0.1495   -1.9944    0.0000 N   0  0  0  0  0  0  0  0  0  0  0  0
   -0.9313   -1.3709    0.0000 C   0  0  0  0  0  0  0  0  0  0  0  0
   -1.9062   -1.5934    0.0000 C   0  0  0  0  0  0  0  0  0  0  0  0
   -2.3401   -2.4944    0.0000 N   0  0  0  0  0  0  0  0  0  0  0  0
   -3.3401   -2.4944    0.0000 C   0  0  0  0  0  0  0  0  0  0  0  0
   -3.9279   -1.6854    0.0000 N   0  0  0  0  0  0  0  0  0  0  0  0
   -4.8789   -1.9944    0.0000 C   0  0  0  0  0  0  0  0  0  0  0  0
   -5.7450   -1.4944    0.0000 C   0  0  0  0  0  0  0  0  0  0  0  0
   -6.6110   -1.9944    0.0000 C   0  0  0  0  0  0  0  0  0  0  0  0
   -7.4770   -1.4944    0.0000 Cl  0  0  0  0  0  0  0  0  0  0  0  0
   -6.6110   -2.9944    0.0000 C   0  0  0  0  0  0  0  0  0  0  0  0
   -5.7450   -3.4944    0.0000 C   0  0  0  0  0  0  0  0  0  0  0  0
   -4.8789   -2.9944    0.0000 C   0  0  0  0  0  0  0  0  0  0  0  0
   -3.9279   -3.3034    0.0000 O   0  0  0  0  0  0  0  0  0  0  0  0
   -1.9062   -3.3954    0.0000 C   0  0  0  0  0  0  0  0  0  0  0  0
   -0.9313   -3.6179    0.0000 C   0  0  0  0  0  0  0  0  0  0  0  0
   -0.1495   -2.9944    0.0000 C   0  0  1  0  0  0  0  0  0  0  0  0
    0.8477   -2.9197    0.0000 H   0  0  0  0  0  0  0  0  0  0  0  0
    0.4139   -3.8206    0.0000 C   0  0  0  0  0  0  0  0  0  0  0  0
    0.0000   -0.0000    0.0000 C   0  0  0  0  0  0  0  0  0  0  0  0
  1  2  1  0  0  0  0
  2 33  1  0  0  0  0
  2  3  2  0  0  0  0
  3  4  1  0  0  0  0
  4  5  2  0  0  0  0
  5  6  1  0  0  0  0
  5 11  1  0  0  0  0
  6 10  1  0  0  0  0
  6  7  1  0  0  0  0
  7  8  2  0  0  0  0
  8  9  1  0  0  0  0
  9 10  2  0  0  0  0
 11 12  1  0  0  0  0
 11 33  2  0  0  0  0
 12 13  2  0  0  0  0
 12 14  1  0  0  0  0
 14 30  1  0  0  0  0
 14 15  1  0  0  0  0
 15 16  1  0  0  0  0
 16 17  1  0  0  0  0
 17 18  1  0  0  0  0
 17 28  1  0  0  0  0
 18 27  1  0  0  0  0
 18 19  2  0  0  0  0
 19 20  1  0  0  0  0
 20 26  1  0  0  0  0
 20 21  2  0  0  0  0
 21 22  1  0  0  0  0
 22 23  1  0  0  0  0
 22 24  2  0  0  0  0
 24 25  1  0  0  0  0
 25 26  2  0  0  0  0
 26 27  1  0  0  0  0
 28 29  1  0  0  0  0
 29 30  1  0  0  0  0
 30 31  1  1  0  0  0
 30 32  1  0  0  0  0
M  END
$$$$

 OpenBabel10082008492D

 26 28  0  0  0  0  0  0  0  0999 V2000
   -3.3517   -5.6132    0.0000 C   0  0  0  0  0  0  0  0  0  0  0  0
   -3.6607   -4.6622    0.0000 C   0  0  0  0  0  0  0  0  0  0  0  0
   -4.6389   -4.4543    0.0000 C   0  0  0  0  0  0  0  0  0  0  0  0
   -4.9479   -3.5032    0.0000 C   0  0  0  0  0  0  0  0  0  0  0  0
   -4.2788   -2.7601    0.0000 C   0  0  0  0  0  0  0  0  0  0  0  0
   -4.5878   -1.8090    0.0000 C   0  0  0  0  0  0  0  0  0  0  0  0
   -5.5388   -1.5000    0.0000 C   0  0  0  0  0  0  0  0  0  0  0  0
   -5.5388   -0.5000    0.0000 C   0  0  0  0  0  0  0  0  0  0  0  0
   -6.3479    0.0878    0.0000 C   0  0  0  0  0  0  0  0  0  0  0  0
   -7.3424    0.1923    0.0000 F   0  0  0  0  0  0  0  0  0  0  0  0
   -6.9356   -0.7212    0.0000 F   0  0  0  0  0  0  0  0  0  0  0  0
   -6.2433    1.0823    0.0000 F   0  0  0  0  0  0  0  0  0  0  0  0
   -4.5878   -0.1910    0.0000 N   0  0  0  0  0  0  0  0  0  0  0  0
   -4.0000   -1.0000    0.0000 N   0  0  0  0  0  0  0  0  0  0  0  0
   -3.0000   -1.0000    0.0000 C   0  0  0  0  0  0  0  0  0  0  0  0
   -2.5000   -0.1340    0.0000 C   0  0  0  0  0  0  0  0  0  0  0  0
   -1.5000   -0.1340    0.0000 C   0  0  0  0  0  0  0  0  0  0  0  0
   -1.0000   -1.0000    0.0000 C   0  0  0  0  0  0  0  0  0  0  0  0
    0.0000   -1.0000    0.0000 S   0  0  0  0  0  0  0  0  0  0  0  0
    0.0000   -2.0000    0.0000 N   0  0  0  0  0  0  0  0  0  0  0  0
    1.0000   -1.0000    0.0000 O   0  0  0  0  0  0  0  0  0  0  0  0
    0.0000    0.0000    0.0000 O   0  0  0  0  0  0  0  0  0  0  0  0
   -1.5000   -1.8660    0.0000 C   0  0  0  0  0  0  0  0  0  0  0  0
   -2.5000   -1.8660    0.0000 C   0  0  0  0  0  0  0  0  0  0  0  0
   -3.3006   -2.9680    0.0000 C   0  0  0  0  0  0  0  0  0  0  0  0
   -2.9916   -3.9190    0.0000 C   0  0  0  0  0  0  0  0  0  0  0  0
  1  2  1  0  0  0  0
  2 26  1  0  0  0  0
  2  3  2  0  0  0  0
  3  4  1  0  0  0  0
  4  5  2  0  0  0  0
  5  6  1  0  0  0  0
  5 25  1  0  0  0  0
  6 14  1  0  0  0  0
  6  7  2  0  0  0  0
  7  8  1  0  0  0  0
  8  9  1  0  0  0  0
  8 13  2  0  0  0  0
  9 10  1  0  0  0  0
  9 11  1  0  0  0  0
  9 12  1  0  0  0  0
 13 14  1  0  0  0  0
 14 15  1  0  0  0  0
 15 24  1  0  0  0  0
 15 16  2  0  0  0  0
 16 17  1  0  0  0  0
 17 18  2  0  0  0  0
 18 19  1  0  0  0  0
 18 23  1  0  0  0  0
 19 20  1  0  0  0  0
 19 21  2  0  0  0  0
 19 22  2  0  0  0  0
 23 24  2  0  0  0  0
 25 26  2  0  0  0  0
M  END
$$$$

 OpenBabel10082008492D

 23 26  0  0  1  0  0  0  0  0999 V2000
    0.0000   -1.7321    0.0000 N   0  0  0  0  0  0  0  0  0  0  0  0
   -0.5000   -0.8660    0.0000 C   0  0  0  0  0  0  0  0  0  0  0  0
   -1.5000   -0.8660    0.0000 N   0  0  0  0  0  0  0  0  0  0  0  0
   -2.0000    0.0000    0.0000 C   0  0  0  0  0  0  0  0  0  0  0  0
   -3.0000    0.0000    0.0000 N   0  0  0  0  0  0  0  0  0  0  0  0
   -3.5000    0.8660    0.0000 C   0  0  0  0  0  0  0  0  0  0  0  0
   -4.3660    1.3660    0.0000 C   0  0  0  0  0  0  0  0  0  0  0  0
   -3.5000    1.8660    0.0000 C   0  0  0  0  0  0  0  0  0  0  0  0
   -1.5000    0.8660    0.0000 C   0  0  0  0  0  0  0  0  0  0  0  0
   -1.8090    1.8171    0.0000 N   0  0  0  0  0  0  0  0  0  0  0  0
   -1.0000    2.4049    0.0000 C   0  0  0  0  0  0  0  0  0  0  0  0
   -0.1910    1.8171    0.0000 N   0  0  0  0  0  0  0  0  0  0  0  0
    0.7601    2.1261    0.0000 C   0  0  1  0  0  0  0  0  0  0  0  0
    0.6464    3.1196    0.0000 H   0  0  0  0  0  0  0  0  0  0  0  0
    1.6511    2.5801    0.0000 C   0  0  0  0  0  0  0  0  0  0  0  0
    2.3582    1.8730    0.0000 C   0  0  0  0  0  0  0  0  0  0  0  0
    1.9042    0.9820    0.0000 C   0  0  1  0  0  0  0  0  0  0  0  0
    1.8519   -0.0167    0.0000 H   0  0  0  0  0  0  0  0  0  0  0  0
    2.7429    0.4373    0.0000 C   0  0  0  0  0  0  0  0  0  0  0  0
    2.6905   -0.5613    0.0000 O   0  0  0  0  0  0  0  0  0  0  0  0
    0.9165    1.1384    0.0000 C   0  0  0  0  0  0  0  0  0  0  0  0
   -0.5000    0.8660    0.0000 C   0  0  0  0  0  0  0  0  0  0  0  0
    0.0000   -0.0000    0.0000 N   0  0  0  0  0  0  0  0  0  0  0  0
  1  2  1  0  0  0  0
  2 23  1  0  0  0  0
  2  3  2  0  0  0  0
  3  4  1  0  0  0  0
  4  5  1  0  0  0  0
  4  9  2  0  0  0  0
  5  6  1  0  0  0  0
  6  8  1  0  0  0  0
  6  7  1  0  0  0  0
  7  8  1  0  0  0  0
  9 22  1  0  0  0  0
  9 10  1  0  0  0  0
 10 11  2  0  0  0  0
 11 12  1  0  0  0  0
 12 13  1  0  0  0  0
 12 22  1  0  0  0  0
 13 14  1  6  0  0  0
 13 21  1  0  0  0  0
 13 15  1  0  0  0  0
 15 16  2  0  0  0  0
 16 17  1  0  0  0  0
 17 18  1  6  0  0  0
 17 19  1  0  0  0  0
 17 21  1  0  0  0  0
 19 20  1  0  0  0  0
 22 23  2  0  0  0  0
M  END
$$$$

 OpenBabel10082008492D

 25 28  0  0  1  0  0  0  0  0999 V2000
   -0.0932   -0.7082    0.0000 C   0  0  0  0  0  0  0  0  0  0  0  0
    0.8083   -0.4667    0.0000 C   0  0  2  0  0  0  0  0  0  0  0  0
    1.6166    0.0000    0.0000 C   0  0  0  0  0  0  0  0  0  0  0  0
    2.4249   -0.4667    0.0000 C   0  0  0  0  0  0  0  0  0  0  0  0
    2.4249   -1.4000    0.0000 C   0  0  1  0  0  0  0  0  0  0  0  0
    4.0415   -0.4667    0.0000 H   0  0  0  0  0  0  0  0  0  0  0  0
    1.6166   -1.8667    0.0000 C   0  0  1  0  0  0  0  0  0  0  0  0
    0.0000   -2.8000    0.0000 H   0  0  0  0  0  0  0  0  0  0  0  0
    1.6166   -2.8000    0.0000 C   0  0  0  0  0  0  0  0  0  0  0  0
    2.4249   -3.2667    0.0000 C   0  0  0  0  0  0  0  0  0  0  0  0
    3.2332   -2.8000    0.0000 C   0  0  0  0  0  0  0  0  0  0  0  0
    4.0415   -3.2667    0.0000 C   0  0  0  0  0  0  0  0  0  0  0  0
    4.8497   -2.8000    0.0000 C   0  0  0  0  0  0  0  0  0  0  0  0
    5.6580   -3.2667    0.0000 O   0  0  0  0  0  0  0  0  0  0  0  0
    4.8497   -1.8667    0.0000 C   0  0  0  0  0  0  0  0  0  0  0  0
    4.0415   -1.4000    0.0000 C   0  0  0  0  0  0  0  0  0  0  0  0
    3.2332   -1.8667    0.0000 C   0  0  2  0  0  0  0  0  0  0  0  0
    3.2332   -0.9333    0.0000 C   0  0  0  0  0  0  0  0  0  0  0  0
    0.8083   -1.4000    0.0000 C   0  0  2  0  0  0  0  0  0  0  0  0
    0.8083   -2.3333    0.0000 H   0  0  0  0  0  0  0  0  0  0  0  0
    0.0000   -1.8667    0.0000 C   0  0  0  0  0  0  0  0  0  0  0  0
   -0.8083   -1.4000    0.0000 C   0  0  0  0  0  0  0  0  0  0  0  0
   -0.8083   -0.4667    0.0000 C   0  0  0  0  0  0  0  0  0  0  0  0
   -1.6166   -0.0000    0.0000 O   0  0  0  0  0  0  0  0  0  0  0  0
    0.0000    0.0000    0.0000 O   0  0  0  0  0  0  0  0  0  0  0  0
  2  1  1  6  0  0  0
  2 19  1  0  0  0  0
  2 25  1  0  0  0  0
  2  3  1  0  0  0  0
  3  4  1  0  0  0  0
  4  5  1  0  0  0  0
  5  6  1  1  0  0  0
  5 17  1  0  0  0  0
  5  7  1  0  0  0  0
  7  8  1  6  0  0  0
  7  9  1  0  0  0  0
  7 19  1  0  0  0  0
  9 10  1  0  0  0  0
 10 11  1  0  0  0  0
 11 17  1  0  0  0  0
 11 12  2  0  0  0  0
 12 13  1  0  0  0  0
 13 14  2  0  0  0  0
 13 15  1  0  0  0  0
 15 16  2  0  0  0  0
 16 17  1  0  0  0  0
 17 18  1  6  0  0  0
 19 20  1  1  0  0  0
 19 21  1  0  0  0  0
 21 22  1  0  0  0  0
 22 23  1  0  0  0  0
 23 24  2  0  0  0  0
 23 25  1  0  0  0  0
M  END
$$$$

 OpenBabel10082008492D

 17 19  0  0  0  0  0  0  0  0999 V2000
    0.8660    0.5000    0.0000 Cl  0  0  0  0  0  0  0  0  0  0  0  0
    1.7321   -0.0000    0.0000 C   0  0  0  0  0  0  0  0  0  0  0  0
    2.5981    0.5000    0.0000 C   0  0  0  0  0  0  0  0  0  0  0  0
    3.4641   -0.0000    0.0000 C   0  0  0  0  0  0  0  0  0  0  0  0
    3.4641   -1.0000    0.0000 C   0  0  0  0  0  0  0  0  0  0  0  0
    2.5981   -1.5000    0.0000 C   0  0  0  0  0  0  0  0  0  0  0  0
    1.7321   -1.0000    0.0000 C   0  0  0  0  0  0  0  0  0  0  0  0
    0.8660   -1.5000    0.0000 C   0  0  0  0  0  0  0  0  0  0  0  0
   -0.0000   -1.0000    0.0000 N   0  0  0  0  0  0  0  0  0  0  0  0
   -0.8660   -1.5000    0.0000 C   0  0  0  0  0  0  0  0  0  0  0  0
   -1.7321   -1.0000    0.0000 C   0  0  0  0  0  0  0  0  0  0  0  0
   -1.7321    0.0000    0.0000 C   0  0  0  0  0  0  0  0  0  0  0  0
   -2.4752    0.6691    0.0000 S   0  0  0  0  0  0  0  0  0  0  0  0
   -2.0685    1.5827    0.0000 C   0  0  0  0  0  0  0  0  0  0  0  0
   -1.0739    1.4781    0.0000 C   0  0  0  0  0  0  0  0  0  0  0  0
   -0.8660    0.5000    0.0000 C   0  0  0  0  0  0  0  0  0  0  0  0
    0.0000    0.0000    0.0000 C   0  0  0  0  0  0  0  0  0  0  0  0
  1  2  1  0  0  0  0
  2  7  1  0  0  0  0
  2  3  2  0  0  0  0
  3  4  1  0  0  0  0
  4  5  2  0  0  0  0
  5  6  1  0  0  0  0
  6  7  2  0  0  0  0
  7  8  1  0  0  0  0
  8  9  1  0  0  0  0
  9 17  1  0  0  0  0
  9 10  1  0  0  0  0
 10 11  1  0  0  0  0
 11 12  1  0  0  0  0
 12 16  2  0  0  0  0
 12 13  1  0  0  0  0
 13 14  1  0  0  0  0
 14 15  2  0  0  0  0
 15 16  1  0  0  0  0
 16 17  1  0  0  0  0
M  END
$$$$

 OpenBabel10082008492D

 23 25  0  0  0  0  0  0  0  0999 V2000
   -0.9706    1.4945    0.0000 O   0  0  0  0  0  0  0  0  0  0  0  0
   -0.1045    0.9945    0.0000 C   0  0  0  0  0  0  0  0  0  0  0  0
    0.8090    1.4013    0.0000 C   0  0  0  0  0  0  0  0  0  0  0  0
    1.4781    0.6581    0.0000 N   0  0  0  0  0  0  0  0  0  0  0  0
    2.4727    0.7626    0.0000 N   0  0  0  0  0  0  0  0  0  0  0  0
    2.8794    1.6762    0.0000 C   0  0  0  0  0  0  0  0  0  0  0  0
    3.8739    1.7807    0.0000 C   0  0  0  0  0  0  0  0  0  0  0  0
    4.3739    2.6467    0.0000 C   0  0  0  0  0  0  0  0  0  0  0  0
    5.3521    2.4388    0.0000 C   0  0  0  0  0  0  0  0  0  0  0  0
    5.4566    1.4443    0.0000 C   0  0  0  0  0  0  0  0  0  0  0  0
    6.3226    0.9443    0.0000 C   0  0  0  0  0  0  0  0  0  0  0  0
    7.1887    1.4443    0.0000 C   0  0  0  0  0  0  0  0  0  0  0  0
    8.0547    0.9443    0.0000 C   0  0  0  0  0  0  0  0  0  0  0  0
    8.0547   -0.0557    0.0000 C   0  0  0  0  0  0  0  0  0  0  0  0
    8.9207   -0.5557    0.0000 N   0  3  0  0  0  0  0  0  0  0  0  0
    8.9207   -1.5557    0.0000 O   0  0  0  0  0  0  0  0  0  0  0  0
    9.7867   -0.0557    0.0000 O   0  5  0  0  0  0  0  0  0  0  0  0
    7.1887   -0.5557    0.0000 C   0  0  0  0  0  0  0  0  0  0  0  0
    6.3226   -0.0557    0.0000 C   0  0  0  0  0  0  0  0  0  0  0  0
    4.5431    1.0376    0.0000 O   0  0  0  0  0  0  0  0  0  0  0  0
    0.9781   -0.2079    0.0000 C   0  0  0  0  0  0  0  0  0  0  0  0
    1.3849   -1.1215    0.0000 O   0  0  0  0  0  0  0  0  0  0  0  0
    0.0000   -0.0000    0.0000 N   0  0  0  0  0  0  0  0  0  0  0  0
  1  2  2  0  0  0  0
  2 23  1  0  0  0  0
  2  3  1  0  0  0  0
  3  4  1  0  0  0  0
  4  5  1  0  0  0  0
  4 21  1  0  0  0  0
  5  6  2  0  0  0  0
  6  7  1  0  0  0  0
  7 20  1  0  0  0  0
  7  8  2  0  0  0  0
  8  9  1  0  0  0  0
  9 10  2  0  0  0  0
 10 11  1  0  0  0  0
 10 20  1  0  0  0  0
 11 19  1  0  0  0  0
 11 12  2  0  0  0  0
 12 13  1  0  0  0  0
 13 14  2  0  0  0  0
 14 15  1  0  0  0  0
 14 18  1  0  0  0  0
 15 16  2  0  0  0  0
 15 17  1  0  0  0  0
 18 19  2  0  0  0  0
 21 22  2  0  0  0  0
 21 23  1  0  0  0  0
M  CHG  2  15   1  17  -1
M  END
$$$$

 OpenBabel10082008492D

 54 57  0  0  1  0  0  0  0  0999 V2000
   -1.7226   -1.1810    0.0000 C   0  0  0  0  0  0  0  0  0  0  0  0
   -0.8090   -1.5878    0.0000 C   0  0  0  0  0  0  0  0  0  0  0  0
   -0.7045   -2.5823    0.0000 C   0  0  0  0  0  0  0  0  0  0  0  0
    0.0000   -1.0000    0.0000 C   0  0  0  0  0  0  0  0  0  0  0  0
    0.9511   -1.3090    0.0000 N   0  0  0  0  0  0  0  0  0  0  0  0
    1.5388   -0.5000    0.0000 C   0  0  0  0  0  0  0  0  0  0  0  0
    2.5388   -0.5000    0.0000 C   0  0  0  0  0  0  0  0  0  0  0  0
    3.0388    0.3660    0.0000 N   0  0  0  0  0  0  0  0  0  0  0  0
    4.0388    0.3660    0.0000 C   0  0  0  0  0  0  0  0  0  0  0  0
    2.5388    1.2321    0.0000 C   0  0  0  0  0  0  0  0  0  0  0  0
    3.0388    2.0981    0.0000 O   0  0  0  0  0  0  0  0  0  0  0  0
    1.5388    1.2321    0.0000 N   0  0  0  0  0  0  0  0  0  0  0  0
    1.0388    2.0981    0.0000 C   0  0  2  0  0  0  0  0  0  0  0  0
    1.9049    2.5981    0.0000 H   0  0  0  0  0  0  0  0  0  0  0  0
    0.5388    2.9641    0.0000 C   0  0  0  0  0  0  0  0  0  0  0  0
    1.0388    3.8301    0.0000 O   0  0  0  0  0  0  0  0  0  0  0  0
   -0.4612    2.9641    0.0000 N   0  0  0  0  0  0  0  0  0  0  0  0
   -0.9612    3.8301    0.0000 C   0  0  1  0  0  0  0  0  0  0  0  0
   -0.0951    4.3301    0.0000 H   0  0  0  0  0  0  0  0  0  0  0  0
   -1.4612    4.6962    0.0000 C   0  0  0  0  0  0  0  0  0  0  0  0
   -0.9612    5.5622    0.0000 C   0  0  0  0  0  0  0  0  0  0  0  0
   -1.4612    6.4282    0.0000 C   0  0  0  0  0  0  0  0  0  0  0  0
   -0.9612    7.2942    0.0000 C   0  0  0  0  0  0  0  0  0  0  0  0
    0.0388    7.2942    0.0000 C   0  0  0  0  0  0  0  0  0  0  0  0
    0.5388    6.4282    0.0000 C   0  0  0  0  0  0  0  0  0  0  0  0
    0.0388    5.5622    0.0000 C   0  0  0  0  0  0  0  0  0  0  0  0
   -1.8272    3.3301    0.0000 C   0  0  0  0  0  0  0  0  0  0  0  0
   -2.6932    3.8301    0.0000 C   0  0  2  0  0  0  0  0  0  0  0  0
   -3.1932    4.6962    0.0000 H   0  0  0  0  0  0  0  0  0  0  0  0
   -2.1932    4.6962    0.0000 O   0  0  0  0  0  0  0  0  0  0  0  0
   -3.5592    3.3301    0.0000 C   0  0  2  0  0  0  0  0  0  0  0  0
   -3.0592    2.4641    0.0000 H   0  0  0  0  0  0  0  0  0  0  0  0
   -4.4253    2.8301    0.0000 C   0  0  0  0  0  0  0  0  0  0  0  0
   -4.4253    1.8301    0.0000 C   0  0  0  0  0  0  0  0  0  0  0  0
   -3.5592    1.3301    0.0000 C   0  0  0  0  0  0  0  0  0  0  0  0
   -3.5592    0.3301    0.0000 C   0  0  0  0  0  0  0  0  0  0  0  0
   -4.4253   -0.1699    0.0000 C   0  0  0  0  0  0  0  0  0  0  0  0
   -5.2913    0.3301    0.0000 C   0  0  0  0  0  0  0  0  0  0  0  0
   -5.2913    1.3301    0.0000 C   0  0  0  0  0  0  0  0  0  0  0  0
   -4.0592    4.1962    0.0000 N   0  0  0  0  0  0  0  0  0  0  0  0
   -5.0592    4.1962    0.0000 C   0  0  0  0  0  0  0  0  0  0  0  0
   -5.5592    3.3301    0.0000 O   0  0  0  0  0  0  0  0  0  0  0  0
   -5.5592    5.0622    0.0000 O   0  0  0  0  0  0  0  0  0  0  0  0
   -6.5592    5.0622    0.0000 C   0  0  0  0  0  0  0  0  0  0  0  0
   -7.0592    4.1962    0.0000 C   0  0  0  0  0  0  0  0  0  0  0  0
   -8.0538    4.0916    0.0000 C   0  0  0  0  0  0  0  0  0  0  0  0
   -8.2617    3.1135    0.0000 N   0  0  0  0  0  0  0  0  0  0  0  0
   -7.3956    2.6135    0.0000 C   0  0  0  0  0  0  0  0  0  0  0  0
   -6.6525    3.2826    0.0000 S   0  0  0  0  0  0  0  0  0  0  0  0
    0.1728    1.5981    0.0000 C   0  0  0  0  0  0  0  0  0  0  0  0
   -0.6932    2.0981    0.0000 C   0  0  0  0  0  0  0  0  0  0  0  0
    0.1728    0.5981    0.0000 C   0  0  0  0  0  0  0  0  0  0  0  0
    0.9511    0.3090    0.0000 C   0  0  0  0  0  0  0  0  0  0  0  0
    0.0000   -0.0000    0.0000 S   0  0  0  0  0  0  0  0  0  0  0  0
  1  2  1  0  0  0  0
  2  3  1  0  0  0  0
  2  4  1  0  0  0  0
  4 54  1  0  0  0  0
  4  5  2  0  0  0  0
  5  6  1  0  0  0  0
  6  7  1  0  0  0  0
  6 53  2  0  0  0  0
  7  8  1  0  0  0  0
  8  9  1  0  0  0  0
  8 10  1  0  0  0  0
 10 11  2  0  0  0  0
 10 12  1  0  0  0  0
 12 13  1  0  0  0  0
 13 14  1  6  0  0  0
 13 15  1  0  0  0  0
 13 50  1  0  0  0  0
 15 16  2  0  0  0  0
 15 17  1  0  0  0  0
 17 18  1  0  0  0  0
 18 19  1  1  0  0  0
 18 20  1  0  0  0  0
 18 27  1  0  0  0  0
 20 21  1  0  0  0  0
 21 26  1  0  0  0  0
 21 22  2  0  0  0  0
 22 23  1  0  0  0  0
 23 24  2  0  0  0  0
 24 25  1  0  0  0  0
 25 26  2  0  0  0  0
 27 28  1  0  0  0  0
 28 29  1  6  0  0  0
 28 30  1  0  0  0  0
 28 31  1  0  0  0  0
 31 32  1  1  0  0  0
 31 33  1  0  0  0  0
 31 40  1  0  0  0  0
 33 34  1  0  0  0  0
 34 39  1  0  0  0  0
 34 35  2  0  0  0  0
 35 36  1  0  0  0  0
 36 37  2  0  0  0  0
 37 38  1  0  0  0  0
 38 39  2  0  0  0  0
 40 41  1  0  0  0  0
 41 42  2  0  0  0  0
 41 43  1  0  0  0  0
 43 44  1  0  0  0  0
 44 45  1  0  0  0  0
 45 49  1  0  0  0  0
 45 46  2  0  0  0  0
 46 47  1  0  0  0  0
 47 48  2  0  0  0  0
 48 49  1  0  0  0  0
 50 51  1  0  0  0  0
 50 52  1  0  0  0  0
 53 54  1  0  0  0  0
M  END
$$$$

 OpenBabel10082008492D

 17 18  0  0  0  0  0  0  0  0999 V2000
   -4.0000   -1.0000    0.0000 N   0  0  0  0  0  0  0  0  0  0  0  0
   -3.0000   -1.0000    0.0000 C   0  0  0  0  0  0  0  0  0  0  0  0
   -2.5000   -0.1340    0.0000 C   0  0  0  0  0  0  0  0  0  0  0  0
   -1.5000   -0.1340    0.0000 C   0  0  0  0  0  0  0  0  0  0  0  0
   -1.0000   -1.0000    0.0000 C   0  0  0  0  0  0  0  0  0  0  0  0
   -0.0000   -1.0000    0.0000 S   0  0  0  0  0  0  0  0  0  0  0  0
   -0.0000   -2.0000    0.0000 O   0  0  0  0  0  0  0  0  0  0  0  0
    1.0000   -1.0000    0.0000 O   0  0  0  0  0  0  0  0  0  0  0  0
    0.0000    0.0000    0.0000 N   0  0  0  0  0  0  0  0  0  0  0  0
    0.8660    0.5000    0.0000 C   0  0  0  0  0  0  0  0  0  0  0  0
    0.8660    1.5000    0.0000 N   0  0  0  0  0  0  0  0  0  0  0  0
    1.7321    2.0000    0.0000 C   0  0  0  0  0  0  0  0  0  0  0  0
    2.5981    1.5000    0.0000 C   0  0  0  0  0  0  0  0  0  0  0  0
    2.5981    0.5000    0.0000 C   0  0  0  0  0  0  0  0  0  0  0  0
    1.7321    0.0000    0.0000 N   0  0  0  0  0  0  0  0  0  0  0  0
   -1.5000   -1.8660    0.0000 C   0  0  0  0  0  0  0  0  0  0  0  0
   -2.5000   -1.8660    0.0000 C   0  0  0  0  0  0  0  0  0  0  0  0
  1  2  1  0  0  0  0
  2 17  1  0  0  0  0
  2  3  2  0  0  0  0
  3  4  1  0  0  0  0
  4  5  2  0  0  0  0
  5  6  1  0  0  0  0
  5 16  1  0  0  0  0
  6  7  2  0  0  0  0
  6  8  2  0  0  0  0
  6  9  1  0  0  0  0
  9 10  1  0  0  0  0
 10 15  1  0  0  0  0
 10 11  2  0  0  0  0
 11 12  1  0  0  0  0
 12 13  2  0  0  0  0
 13 14  1  0  0  0  0
 14 15  2  0  0  0  0
 16 17  2  0  0  0  0
M  END
$$$$

 OpenBabel10082008492D

 41 44  0  0  0  0  0  0  0  0999 V2000
    6.0622   -2.5000    0.0000 C   0  0  0  0  0  0  0  0  0  0  0  0
    5.1962   -3.0000    0.0000 C   0  0  0  0  0  0  0  0  0  0  0  0
    5.1962   -4.0000    0.0000 C   0  0  0  0  0  0  0  0  0  0  0  0
    4.3301   -4.5000    0.0000 C   0  0  0  0  0  0  0  0  0  0  0  0
    3.4641   -4.0000    0.0000 C   0  0  0  0  0  0  0  0  0  0  0  0
    3.4641   -3.0000    0.0000 C   0  0  0  0  0  0  0  0  0  0  0  0
    4.3301   -2.5000    0.0000 C   0  0  0  0  0  0  0  0  0  0  0  0
    4.3301   -1.5000    0.0000 C   0  0  0  0  0  0  0  0  0  0  0  0
    5.1962   -1.0000    0.0000 C   0  0  0  0  0  0  0  0  0  0  0  0
    5.1962   -0.0000    0.0000 C   0  0  0  0  0  0  0  0  0  0  0  0
    6.0622    0.5000    0.0000 N   0  0  0  0  0  0  0  0  0  0  0  0
    6.9282   -0.0000    0.0000 C   0  0  0  0  0  0  0  0  0  0  0  0
    7.7942    0.5000    0.0000 C   0  0  0  0  0  0  0  0  0  0  0  0
    7.7942    1.5000    0.0000 N   0  0  0  0  0  0  0  0  0  0  0  0
    8.6603    2.0000    0.0000 C   0  0  0  0  0  0  0  0  0  0  0  0
    6.9282    2.0000    0.0000 C   0  0  0  0  0  0  0  0  0  0  0  0
    6.0622    1.5000    0.0000 C   0  0  0  0  0  0  0  0  0  0  0  0
    4.3301    0.5000    0.0000 N   0  0  0  0  0  0  0  0  0  0  0  0
    3.4641   -0.0000    0.0000 C   0  0  0  0  0  0  0  0  0  0  0  0
    3.4641   -1.0000    0.0000 C   0  0  0  0  0  0  0  0  0  0  0  0
    2.5981   -1.5000    0.0000 N   0  0  0  0  0  0  0  0  0  0  0  0
    2.5981   -2.5000    0.0000 C   0  0  0  0  0  0  0  0  0  0  0  0
    1.7321   -1.0000    0.0000 C   0  0  0  0  0  0  0  0  0  0  0  0
    0.8660   -1.5000    0.0000 O   0  0  0  0  0  0  0  0  0  0  0  0
    1.7321   -0.0000    0.0000 C   0  0  0  0  0  0  0  0  0  0  0  0
    2.2321    0.8660    0.0000 C   0  0  0  0  0  0  0  0  0  0  0  0
    2.7321   -0.0000    0.0000 C   0  0  0  0  0  0  0  0  0  0  0  0
    0.8660    0.5000    0.0000 C   0  0  0  0  0  0  0  0  0  0  0  0
    0.8660    1.5000    0.0000 C   0  0  0  0  0  0  0  0  0  0  0  0
    0.0000    2.0000    0.0000 C   0  0  0  0  0  0  0  0  0  0  0  0
    0.0000    3.0000    0.0000 C   0  0  0  0  0  0  0  0  0  0  0  0
    0.5000    3.8660    0.0000 F   0  0  0  0  0  0  0  0  0  0  0  0
    1.0000    3.0000    0.0000 F   0  0  0  0  0  0  0  0  0  0  0  0
   -0.8660    3.5000    0.0000 F   0  0  0  0  0  0  0  0  0  0  0  0
   -0.8660    1.5000    0.0000 C   0  0  0  0  0  0  0  0  0  0  0  0
   -0.8660    0.5000    0.0000 C   0  0  0  0  0  0  0  0  0  0  0  0
   -1.7321    0.0000    0.0000 C   0  0  0  0  0  0  0  0  0  0  0  0
   -2.7321    0.0000    0.0000 F   0  0  0  0  0  0  0  0  0  0  0  0
   -2.2321    0.8660    0.0000 F   0  0  0  0  0  0  0  0  0  0  0  0
   -1.7321   -1.0000    0.0000 F   0  0  0  0  0  0  0  0  0  0  0  0
    0.0000   -0.0000    0.0000 C   0  0  0  0  0  0  0  0  0  0  0  0
  1  2  1  0  0  0  0
  2  7  1  0  0  0  0
  2  3  2  0  0  0  0
  3  4  1  0  0  0  0
  4  5  2  0  0  0  0
  5  6  1  0  0  0  0
  6  7  2  0  0  0  0
  7  8  1  0  0  0  0
  8 20  1  0  0  0  0
  8  9  2  0  0  0  0
  9 10  1  0  0  0  0
 10 11  1  0  0  0  0
 10 18  2  0  0  0  0
 11 17  1  0  0  0  0
 11 12  1  0  0  0  0
 12 13  1  0  0  0  0
 13 14  1  0  0  0  0
 14 15  1  0  0  0  0
 14 16  1  0  0  0  0
 16 17  1  0  0  0  0
 18 19  1  0  0  0  0
 19 20  2  0  0  0  0
 20 21  1  0  0  0  0
 21 22  1  0  0  0  0
 21 23  1  0  0  0  0
 23 24  2  0  0  0  0
 23 25  1  0  0  0  0
 25 26  1  0  0  0  0
 25 27  1  0  0  0  0
 25 28  1  0  0  0  0
 28 41  1  0  0  0  0
 28 29  2  0  0  0  0
 29 30  1  0  0  0  0
 30 31  1  0  0  0  0
 30 35  2  0  0  0  0
 31 32  1  0  0  0  0
 31 33  1  0  0  0  0
 31 34  1  0  0  0  0
 35 36  1  0  0  0  0
 36 37  1  0  0  0  0
 36 41  2  0  0  0  0
 37 38  1  0  0  0  0
 37 39  1  0  0  0  0
 37 40  1  0  0  0  0
M  END
$$$$

 OpenBabel10082008492D

 22 23  0  0  0  0  0  0  0  0999 V2000
   -0.3660   -2.3660    0.0000 C   0  0  0  0  0  0  0  0  0  0  0  0
   -0.8660   -1.5000    0.0000 C   0  0  0  0  0  0  0  0  0  0  0  0
    0.1340   -1.5000    0.0000 C   0  0  0  0  0  0  0  0  0  0  0  0
   -1.7321   -2.0000    0.0000 C   0  0  0  0  0  0  0  0  0  0  0  0
   -2.5981   -2.5000    0.0000 N   0  0  0  0  0  0  0  0  0  0  0  0
   -0.8660   -0.5000    0.0000 C   0  0  0  0  0  0  0  0  0  0  0  0
   -1.7321    0.0000    0.0000 C   0  0  0  0  0  0  0  0  0  0  0  0
   -1.7321    1.0000    0.0000 C   0  0  0  0  0  0  0  0  0  0  0  0
   -2.5981    1.5000    0.0000 C   0  0  0  0  0  0  0  0  0  0  0  0
   -3.4641    1.0000    0.0000 N   0  0  0  0  0  0  0  0  0  0  0  0
   -3.5686    0.0055    0.0000 C   0  0  0  0  0  0  0  0  0  0  0  0
   -4.5468   -0.2024    0.0000 N   0  0  0  0  0  0  0  0  0  0  0  0
   -5.0468    0.6636    0.0000 C   0  0  0  0  0  0  0  0  0  0  0  0
   -4.3776    1.4067    0.0000 N   0  0  0  0  0  0  0  0  0  0  0  0
   -0.8660    1.5000    0.0000 C   0  0  0  0  0  0  0  0  0  0  0  0
    0.0000    1.0000    0.0000 C   0  0  0  0  0  0  0  0  0  0  0  0
    0.8660    1.5000    0.0000 C   0  0  0  0  0  0  0  0  0  0  0  0
    1.3660    2.3660    0.0000 C   0  0  0  0  0  0  0  0  0  0  0  0
    0.3660    2.3660    0.0000 C   0  0  0  0  0  0  0  0  0  0  0  0
    1.7321    1.0000    0.0000 C   0  0  0  0  0  0  0  0  0  0  0  0
    2.5981    0.5000    0.0000 N   0  0  0  0  0  0  0  0  0  0  0  0
   -0.0000   -0.0000    0.0000 C   0  0  0  0  0  0  0  0  0  0  0  0
  1  2  1  0  0  0  0
  2  3  1  0  0  0  0
  2  4  1  0  0  0  0
  2  6  1  0  0  0  0
  4  5  3  0  0  0  0
  6 22  1  0  0  0  0
  6  7  2  0  0  0  0
  7  8  1  0  0  0  0
  8  9  1  0  0  0  0
  8 15  2  0  0  0  0
  9 10  1  0  0  0  0
 10 14  1  0  0  0  0
 10 11  1  0  0  0  0
 11 12  2  0  0  0  0
 12 13  1  0  0  0  0
 13 14  2  0  0  0  0
 15 16  1  0  0  0  0
 16 17  1  0  0  0  0
 16 22  2  0  0  0  0
 17 18  1  0  0  0  0
 17 19  1  0  0  0  0
 17 20  1  0  0  0  0
 20 21  3  0  0  0  0
M  END
$$$$

 OpenBabel10082008492D

 33 37  0  0  0  0  0  0  0  0999 V2000
   -4.1354   -2.8412    0.0000 C   0  0  0  0  0  0  0  0  0  0  0  0
   -3.1843   -2.5322    0.0000 C   0  0  0  0  0  0  0  0  0  0  0  0
   -2.9764   -1.5540    0.0000 C   0  0  0  0  0  0  0  0  0  0  0  0
   -3.7195   -0.8849    0.0000 C   0  0  0  0  0  0  0  0  0  0  0  0
   -3.5116    0.0933    0.0000 C   0  0  0  0  0  0  0  0  0  0  0  0
   -4.1808    0.8364    0.0000 N   0  0  0  0  0  0  0  0  0  0  0  0
   -3.6808    1.7024    0.0000 C   0  0  0  0  0  0  0  0  0  0  0  0
   -4.6589    1.9103    0.0000 C   0  0  0  0  0  0  0  0  0  0  0  0
   -4.7634    2.9049    0.0000 C   0  0  0  0  0  0  0  0  0  0  0  0
   -3.8499    3.3116    0.0000 C   0  0  0  0  0  0  0  0  0  0  0  0
   -3.1808    2.5685    0.0000 C   0  0  0  0  0  0  0  0  0  0  0  0
   -2.7026    1.4945    0.0000 C   0  0  0  0  0  0  0  0  0  0  0  0
   -1.9595    2.1637    0.0000 O   0  0  0  0  0  0  0  0  0  0  0  0
   -2.5981    0.5000    0.0000 N   0  0  0  0  0  0  0  0  0  0  0  0
   -1.7321   -0.0000    0.0000 C   0  0  0  0  0  0  0  0  0  0  0  0
   -0.8660    0.5000    0.0000 C   0  0  0  0  0  0  0  0  0  0  0  0
   -0.8660    1.5000    0.0000 C   0  0  0  0  0  0  0  0  0  0  0  0
   -0.0000    2.0000    0.0000 C   0  0  0  0  0  0  0  0  0  0  0  0
    0.8660    1.5000    0.0000 C   0  0  0  0  0  0  0  0  0  0  0  0
    1.7321    2.0000    0.0000 C   0  0  0  0  0  0  0  0  0  0  0  0
    1.7321    3.0000    0.0000 C   0  0  0  0  0  0  0  0  0  0  0  0
    2.5981    3.5000    0.0000 C   0  0  0  0  0  0  0  0  0  0  0  0
    3.4641    3.0000    0.0000 C   0  0  0  0  0  0  0  0  0  0  0  0
    3.4641    2.0000    0.0000 C   0  0  0  0  0  0  0  0  0  0  0  0
    2.5981    1.5000    0.0000 C   0  0  0  0  0  0  0  0  0  0  0  0
    2.5981    0.5000    0.0000 C   0  0  0  0  0  0  0  0  0  0  0  0
    3.4071   -0.0878    0.0000 N   0  0  0  0  0  0  0  0  0  0  0  0
    3.0981   -1.0388    0.0000 N   0  0  0  0  0  0  0  0  0  0  0  0
    2.0981   -1.0388    0.0000 N   0  0  0  0  0  0  0  0  0  0  0  0
    1.5103   -1.8479    0.0000 H   0  0  0  0  0  0  0  0  0  0  0  0
    1.7891   -0.0878    0.0000 N   0  0  0  0  0  0  0  0  0  0  0  0
    0.8660    0.5000    0.0000 C   0  0  0  0  0  0  0  0  0  0  0  0
    0.0000    0.0000    0.0000 C   0  0  0  0  0  0  0  0  0  0  0  0
  1  2  1  0  0  0  0
  2  3  1  0  0  0  0
  3  4  1  0  0  0  0
  4  5  1  0  0  0  0
  5 14  1  0  0  0  0
  5  6  2  0  0  0  0
  6  7  1  0  0  0  0
  7 11  1  0  0  0  0
  7  8  1  0  0  0  0
  7 12  1  0  0  0  0
  8  9  1  0  0  0  0
  9 10  1  0  0  0  0
 10 11  1  0  0  0  0
 12 13  2  0  0  0  0
 12 14  1  0  0  0  0
 14 15  1  0  0  0  0
 15 16  1  0  0  0  0
 16 33  1  0  0  0  0
 16 17  2  0  0  0  0
 17 18  1  0  0  0  0
 18 19  2  0  0  0  0
 19 20  1  0  0  0  0
 19 32  1  0  0  0  0
 20 25  1  0  0  0  0
 20 21  2  0  0  0  0
 21 22  1  0  0  0  0
 22 23  2  0  0  0  0
 23 24  1  0  0  0  0
 24 25  2  0  0  0  0
 25 26  1  0  0  0  0
 26 31  2  0  0  0  0
 26 27  1  0  0  0  0
 27 28  2  0  0  0  0
 28 29  1  0  0  0  0
 29 30  1  0  0  0  0
 29 31  1  0  0  0  0
 32 33  2  0  0  0  0
M  END
$$$$

 OpenBabel10082008492D

 34 38  0  0  1  0  0  0  0  0999 V2000
    3.2340   -1.2414    0.0000 C   0  0  0  0  0  0  0  0  0  0  0  0
    2.2463   -1.3979    0.0000 C   0  0  0  0  0  0  0  0  0  0  0  0
    1.6170   -0.6207    0.0000 C   0  0  0  0  0  0  0  0  0  0  0  0
    1.9754    0.3129    0.0000 O   0  0  0  0  0  0  0  0  0  0  0  0
    0.6293   -0.7771    0.0000 N   0  0  0  0  0  0  0  0  0  0  0  0
    0.2710   -1.7107    0.0000 C   0  0  0  0  0  0  0  0  0  0  0  0
   -0.7167   -1.8672    0.0000 C   0  0  0  0  0  0  0  0  0  0  0  0
   -1.3461   -1.0900    0.0000 C   0  0  0  0  0  0  0  0  0  0  0  0
   -0.9877   -0.1564    0.0000 C   0  0  1  0  0  0  0  0  0  0  0  0
   -0.5105    0.7224    0.0000 H   0  0  0  0  0  0  0  0  0  0  0  0
   -1.9822   -0.0519    0.0000 N   0  0  0  0  0  0  0  0  0  0  0  0
   -2.6513   -0.7951    0.0000 N   0  0  0  0  0  0  0  0  0  0  0  0
   -3.5649   -0.3883    0.0000 C   0  0  0  0  0  0  0  0  0  0  0  0
   -4.4309   -0.8883    0.0000 C   0  0  0  0  0  0  0  0  0  0  0  0
   -4.4309   -1.8883    0.0000 C   0  0  0  0  0  0  0  0  0  0  0  0
   -5.2969   -2.3883    0.0000 C   0  0  0  0  0  0  0  0  0  0  0  0
   -6.1630   -1.8883    0.0000 C   0  0  0  0  0  0  0  0  0  0  0  0
   -7.0290   -2.3883    0.0000 O   0  0  0  0  0  0  0  0  0  0  0  0
   -7.8950   -1.8883    0.0000 C   0  0  0  0  0  0  0  0  0  0  0  0
   -8.7610   -2.3883    0.0000 C   0  0  0  0  0  0  0  0  0  0  0  0
   -9.6271   -1.8883    0.0000 C   0  0  0  0  0  0  0  0  0  0  0  0
   -9.6271   -0.8883    0.0000 C   0  0  0  0  0  0  0  0  0  0  0  0
   -8.7610   -0.3883    0.0000 C   0  0  0  0  0  0  0  0  0  0  0  0
   -7.8950   -0.8883    0.0000 C   0  0  0  0  0  0  0  0  0  0  0  0
   -6.1630   -0.8883    0.0000 C   0  0  0  0  0  0  0  0  0  0  0  0
   -5.2969   -0.3883    0.0000 C   0  0  0  0  0  0  0  0  0  0  0  0
   -3.4604    0.6062    0.0000 C   0  0  0  0  0  0  0  0  0  0  0  0
   -4.1295    1.3494    0.0000 C   0  0  0  0  0  0  0  0  0  0  0  0
   -5.1076    1.1414    0.0000 N   0  0  0  0  0  0  0  0  0  0  0  0
   -3.8205    2.3004    0.0000 N   0  0  0  0  0  0  0  0  0  0  0  0
   -2.8423    2.5083    0.0000 C   0  0  0  0  0  0  0  0  0  0  0  0
   -2.1732    1.7652    0.0000 N   0  0  0  0  0  0  0  0  0  0  0  0
   -2.4822    0.8141    0.0000 C   0  0  0  0  0  0  0  0  0  0  0  0
   -0.0000   -0.0000    0.0000 C   0  0  0  0  0  0  0  0  0  0  0  0
  1  2  2  0  0  0  0
  2  3  1  0  0  0  0
  3  4  2  0  0  0  0
  3  5  1  0  0  0  0
  5 34  1  0  0  0  0
  5  6  1  0  0  0  0
  6  7  1  0  0  0  0
  7  8  1  0  0  0  0
  8  9  1  0  0  0  0
  9 10  1  6  0  0  0
  9 11  1  0  0  0  0
  9 34  1  0  0  0  0
 11 33  1  0  0  0  0
 11 12  1  0  0  0  0
 12 13  2  0  0  0  0
 13 14  1  0  0  0  0
 13 27  1  0  0  0  0
 14 26  1  0  0  0  0
 14 15  2  0  0  0  0
 15 16  1  0  0  0  0
 16 17  2  0  0  0  0
 17 18  1  0  0  0  0
 17 25  1  0  0  0  0
 18 19  1  0  0  0  0
 19 24  1  0  0  0  0
 19 20  2  0  0  0  0
 20 21  1  0  0  0  0
 21 22  2  0  0  0  0
 22 23  1  0  0  0  0
 23 24  2  0  0  0  0
 25 26  2  0  0  0  0
 27 33  1  0  0  0  0
 27 28  2  0  0  0  0
 28 29  1  0  0  0  0
 28 30  1  0  0  0  0
 30 31  2  0  0  0  0
 31 32  1  0  0  0  0
 32 33  2  0  0  0  0
M  END
$$$$

 OpenBabel10082008492D

 23 23  0  0  1  0  0  0  0  0999 V2000
   -4.3301   -4.5000    0.0000 C   0  0  0  0  0  0  0  0  0  0  0  0
   -3.4641   -5.0000    0.0000 C   0  0  0  0  0  0  0  0  0  0  0  0
   -3.4641   -6.0000    0.0000 C   0  0  0  0  0  0  0  0  0  0  0  0
   -2.5981   -4.5000    0.0000 N   0  0  0  0  0  0  0  0  0  0  0  0
   -2.5981   -3.5000    0.0000 C   0  0  0  0  0  0  0  0  0  0  0  0
   -1.7321   -3.0000    0.0000 C   0  0  3  0  0  0  0  0  0  0  0  0
   -0.8660   -3.5000    0.0000 O   0  0  0  0  0  0  0  0  0  0  0  0
   -1.7321   -2.0000    0.0000 C   0  0  0  0  0  0  0  0  0  0  0  0
   -0.8660   -1.5000    0.0000 O   0  0  0  0  0  0  0  0  0  0  0  0
   -0.8660   -0.5000    0.0000 C   0  0  0  0  0  0  0  0  0  0  0  0
   -1.7321   -0.0000    0.0000 C   0  0  0  0  0  0  0  0  0  0  0  0
   -1.7321    1.0000    0.0000 C   0  0  0  0  0  0  0  0  0  0  0  0
   -0.8660    1.5000    0.0000 C   0  0  0  0  0  0  0  0  0  0  0  0
   -0.8660    2.5000    0.0000 C   0  0  0  0  0  0  0  0  0  0  0  0
   -0.0000    3.0000    0.0000 O   0  0  0  0  0  0  0  0  0  0  0  0
    0.0000    4.0000    0.0000 C   0  0  0  0  0  0  0  0  0  0  0  0
    0.8660    4.5000    0.0000 C   0  0  0  0  0  0  0  0  0  0  0  0
    0.8660    5.5000    0.0000 O   0  0  0  0  0  0  0  0  0  0  0  0
    1.7321    6.0000    0.0000 C   0  0  0  0  0  0  0  0  0  0  0  0
    2.5981    5.5000    0.0000 C   0  0  0  0  0  0  0  0  0  0  0  0
    1.7321    7.0000    0.0000 C   0  0  0  0  0  0  0  0  0  0  0  0
   -0.0000    1.0000    0.0000 C   0  0  0  0  0  0  0  0  0  0  0  0
    0.0000   -0.0000    0.0000 C   0  0  0  0  0  0  0  0  0  0  0  0
  1  2  1  0  0  0  0
  2  3  1  0  0  0  0
  2  4  1  0  0  0  0
  4  5  1  0  0  0  0
  5  6  1  0  0  0  0
  6  7  1  0  0  0  0
  6  8  1  0  0  0  0
  8  9  1  0  0  0  0
  9 10  1  0  0  0  0
 10 23  1  0  0  0  0
 10 11  2  0  0  0  0
 11 12  1  0  0  0  0
 12 13  2  0  0  0  0
 13 14  1  0  0  0  0
 13 22  1  0  0  0  0
 14 15  1  0  0  0  0
 15 16  1  0  0  0  0
 16 17  1  0  0  0  0
 17 18  1  0  0  0  0
 18 19  1  0  0  0  0
 19 20  1  0  0  0  0
 19 21  1  0  0  0  0
 22 23  2  0  0  0  0
M  END
$$$$

 OpenBabel10082008492D

 12 12  0  0  0  0  0  0  0  0999 V2000
   -0.8660    4.5000    0.0000 O   0  0  0  0  0  0  0  0  0  0  0  0
   -1.7321    4.0000    0.0000 C   0  0  0  0  0  0  0  0  0  0  0  0
   -2.5981    4.5000    0.0000 O   0  0  0  0  0  0  0  0  0  0  0  0
   -1.7321    3.0000    0.0000 C   0  0  0  0  0  0  0  0  0  0  0  0
   -0.8660    2.5000    0.0000 C   0  0  0  0  0  0  0  0  0  0  0  0
   -0.8660    1.5000    0.0000 C   0  0  0  0  0  0  0  0  0  0  0  0
    0.0000    1.0000    0.0000 C   0  0  0  0  0  0  0  0  0  0  0  0
    0.8660    1.5000    0.0000 C   0  0  0  0  0  0  0  0  0  0  0  0
    1.7321    1.0000    0.0000 C   0  0  0  0  0  0  0  0  0  0  0  0
    1.7321   -0.0000    0.0000 C   0  0  0  0  0  0  0  0  0  0  0  0
    0.8660   -0.5000    0.0000 C   0  0  0  0  0  0  0  0  0  0  0  0
    0.0000   -0.0000    0.0000 C   0  0  0  0  0  0  0  0  0  0  0  0
  1  2  2  0  0  0  0
  2  3  1  0  0  0  0
  2  4  1  0  0  0  0
  4  5  1  0  0  0  0
  5  6  1  0  0  0  0
  6  7  1  0  0  0  0
  7 12  1  0  0  0  0
  7  8  2  0  0  0  0
  8  9  1  0  0  0  0
  9 10  2  0  0  0  0
 10 11  1  0  0  0  0
 11 12  2  0  0  0  0
M  END
$$$$

 OpenBabel10082008492D

 11 11  0  0  0  0  0  0  0  0999 V2000
    3.4641    0.0000    0.0000 C   0  0  0  0  0  0  0  0  0  0  0  0
    2.5981   -0.5000    0.0000 C   0  0  0  0  0  0  0  0  0  0  0  0
    2.0981   -1.3660    0.0000 C   0  0  0  0  0  0  0  0  0  0  0  0
    3.0981   -1.3660    0.0000 N   0  0  0  0  0  0  0  0  0  0  0  0
    1.7321    0.0000    0.0000 C   0  0  0  0  0  0  0  0  0  0  0  0
    0.8660   -0.5000    0.0000 C   0  0  0  0  0  0  0  0  0  0  0  0
    0.8660   -1.5000    0.0000 C   0  0  0  0  0  0  0  0  0  0  0  0
    0.0000   -2.0000    0.0000 C   0  0  0  0  0  0  0  0  0  0  0  0
   -0.8660   -1.5000    0.0000 C   0  0  0  0  0  0  0  0  0  0  0  0
   -0.8660   -0.5000    0.0000 C   0  0  0  0  0  0  0  0  0  0  0  0
    0.0000   -0.0000    0.0000 C   0  0  0  0  0  0  0  0  0  0  0  0
  1  2  1  0  0  0  0
  2  3  1  0  0  0  0
  2  4  1  0  0  0  0
  2  5  1  0  0  0  0
  5  6  1  0  0  0  0
  6 11  1  0  0  0  0
  6  7  2  0  0  0  0
  7  8  1  0  0  0  0
  8  9  2  0  0  0  0
  9 10  1  0  0  0  0
 10 11  2  0  0  0  0
M  END
$$$$

 OpenBabel10082008492D

 28 31  0  0  0  0  0  0  0  0999 V2000
   -2.5981   -4.5000    0.0000 O   0  0  0  0  0  0  0  0  0  0  0  0
   -3.4641   -4.0000    0.0000 C   0  0  0  0  0  0  0  0  0  0  0  0
   -4.3301   -4.5000    0.0000 C   0  0  0  0  0  0  0  0  0  0  0  0
   -5.1962   -4.0000    0.0000 C   0  0  0  0  0  0  0  0  0  0  0  0
   -5.3007   -4.9945    0.0000 C   0  0  0  0  0  0  0  0  0  0  0  0
   -6.2788   -5.2024    0.0000 C   0  0  0  0  0  0  0  0  0  0  0  0
   -6.7788   -4.3364    0.0000 C   0  0  0  0  0  0  0  0  0  0  0  0
   -6.1097   -3.5933    0.0000 C   0  0  0  0  0  0  0  0  0  0  0  0
   -5.1962   -3.0000    0.0000 C   0  0  0  0  0  0  0  0  0  0  0  0
   -4.3301   -2.5000    0.0000 C   0  0  0  0  0  0  0  0  0  0  0  0
   -4.3301   -1.5000    0.0000 O   0  0  0  0  0  0  0  0  0  0  0  0
   -3.4641   -3.0000    0.0000 N   0  0  0  0  0  0  0  0  0  0  0  0
   -2.5981   -2.5000    0.0000 C   0  0  0  0  0  0  0  0  0  0  0  0
   -1.7321   -3.0000    0.0000 C   0  0  0  0  0  0  0  0  0  0  0  0
   -0.8660   -2.5000    0.0000 C   0  0  0  0  0  0  0  0  0  0  0  0
   -0.8660   -1.5000    0.0000 C   0  0  0  0  0  0  0  0  0  0  0  0
   -0.0000   -1.0000    0.0000 N   0  0  0  0  0  0  0  0  0  0  0  0
    0.8660   -1.5000    0.0000 C   0  0  0  0  0  0  0  0  0  0  0  0
    1.7321   -1.0000    0.0000 C   0  0  0  0  0  0  0  0  0  0  0  0
    1.7321   -0.0000    0.0000 N   0  0  0  0  0  0  0  0  0  0  0  0
    2.5981    0.5000    0.0000 C   0  0  0  0  0  0  0  0  0  0  0  0
    3.4641   -0.0000    0.0000 N   0  0  0  0  0  0  0  0  0  0  0  0
    4.3301    0.5000    0.0000 C   0  0  0  0  0  0  0  0  0  0  0  0
    4.3301    1.5000    0.0000 C   0  0  0  0  0  0  0  0  0  0  0  0
    3.4641    2.0000    0.0000 C   0  0  0  0  0  0  0  0  0  0  0  0
    2.5981    1.5000    0.0000 N   0  0  0  0  0  0  0  0  0  0  0  0
    0.8660    0.5000    0.0000 C   0  0  0  0  0  0  0  0  0  0  0  0
   -0.0000   -0.0000    0.0000 C   0  0  0  0  0  0  0  0  0  0  0  0
  1  2  2  0  0  0  0
  2 12  1  0  0  0  0
  2  3  1  0  0  0  0
  3  4  1  0  0  0  0
  4  8  1  0  0  0  0
  4  5  1  0  0  0  0
  4  9  1  0  0  0  0
  5  6  1  0  0  0  0
  6  7  1  0  0  0  0
  7  8  1  0  0  0  0
  9 10  1  0  0  0  0
 10 11  2  0  0  0  0
 10 12  1  0  0  0  0
 12 13  1  0  0  0  0
 13 14  1  0  0  0  0
 14 15  1  0  0  0  0
 15 16  1  0  0  0  0
 16 17  1  0  0  0  0
 17 28  1  0  0  0  0
 17 18  1  0  0  0  0
 18 19  1  0  0  0  0
 19 20  1  0  0  0  0
 20 21  1  0  0  0  0
 20 27  1  0  0  0  0
 21 26  1  0  0  0  0
 21 22  2  0  0  0  0
 22 23  1  0  0  0  0
 23 24  2  0  0  0  0
 24 25  1  0  0  0  0
 25 26  2  0  0  0  0
 27 28  1  0  0  0  0
M  END
$$$$

 OpenBabel10082008492D

 23 26  0  0  1  0  0  0  0  0999 V2000
   -0.8660    2.5000    0.0000 O   0  0  0  0  0  0  0  0  0  0  0  0
   -0.8660    1.5000    0.0000 C   0  0  0  0  0  0  0  0  0  0  0  0
   -1.7321    1.0000    0.0000 C   0  0  0  0  0  0  0  0  0  0  0  0
   -1.7321    0.0000    0.0000 C   0  0  0  0  0  0  0  0  0  0  0  0
   -2.5981   -0.5000    0.0000 C   0  0  0  0  0  0  0  0  0  0  0  0
   -3.4641    0.0000    0.0000 C   0  0  0  0  0  0  0  0  0  0  0  0
   -3.4641    1.0000    0.0000 C   0  0  0  0  0  0  0  0  0  0  0  0
   -2.5981    1.5000    0.0000 C   0  0  0  0  0  0  0  0  0  0  0  0
    0.0000    1.0000    0.0000 N   0  0  0  0  0  0  0  0  0  0  0  0
    0.8660    1.5000    0.0000 C   0  0  0  0  0  0  0  0  0  0  0  0
    1.7321    1.0000    0.0000 C   0  0  0  0  0  0  0  0  0  0  0  0
    2.5981    1.5000    0.0000 O   0  0  0  0  0  0  0  0  0  0  0  0
    1.7321   -0.0000    0.0000 N   0  0  0  0  0  0  0  0  0  0  0  0
    2.5981   -0.5000    0.0000 C   0  0  0  0  0  0  0  0  0  0  0  0
    2.5981   -1.5000    0.0000 C   0  0  0  0  0  0  0  0  0  0  0  0
    1.7321   -2.0000    0.0000 C   0  0  0  0  0  0  0  0  0  0  0  0
    1.7321   -3.0000    0.0000 C   0  0  0  0  0  0  0  0  0  0  0  0
    0.8660   -3.5000    0.0000 C   0  0  0  0  0  0  0  0  0  0  0  0
    0.0000   -3.0000    0.0000 C   0  0  0  0  0  0  0  0  0  0  0  0
   -0.0000   -2.0000    0.0000 C   0  0  0  0  0  0  0  0  0  0  0  0
    0.8660   -1.5000    0.0000 C   0  0  0  0  0  0  0  0  0  0  0  0
    0.8660   -0.5000    0.0000 C   0  0  3  0  0  0  0  0  0  0  0  0
    0.0000   -0.0000    0.0000 C   0  0  0  0  0  0  0  0  0  0  0  0
  1  2  2  0  0  0  0
  2  3  1  0  0  0  0
  2  9  1  0  0  0  0
  3  8  1  0  0  0  0
  3  4  1  0  0  0  0
  4  5  1  0  0  0  0
  5  6  1  0  0  0  0
  6  7  1  0  0  0  0
  7  8  1  0  0  0  0
  9 23  1  0  0  0  0
  9 10  1  0  0  0  0
 10 11  1  0  0  0  0
 11 12  2  0  0  0  0
 11 13  1  0  0  0  0
 13 22  1  0  0  0  0
 13 14  1  0  0  0  0
 14 15  1  0  0  0  0
 15 16  1  0  0  0  0
 16 21  1  0  0  0  0
 16 17  2  0  0  0  0
 17 18  1  0  0  0  0
 18 19  2  0  0  0  0
 19 20  1  0  0  0  0
 20 21  2  0  0  0  0
 21 22  1  0  0  0  0
 22 23  1  0  0  0  0
M  END
$$$$

 OpenBabel10082008492D

 17 18  0  0  0  0  0  0  0  0999 V2000
    2.5981   -0.5000    0.0000 C   0  0  0  0  0  0  0  0  0  0  0  0
    1.7321   -0.0000    0.0000 O   0  0  0  0  0  0  0  0  0  0  0  0
    0.8660   -0.5000    0.0000 C   0  0  0  0  0  0  0  0  0  0  0  0
    0.8660   -1.5000    0.0000 C   0  0  0  0  0  0  0  0  0  0  0  0
    0.0000   -2.0000    0.0000 C   0  0  0  0  0  0  0  0  0  0  0  0
   -0.8660   -1.5000    0.0000 C   0  0  0  0  0  0  0  0  0  0  0  0
   -1.7321   -2.0000    0.0000 C   0  0  0  0  0  0  0  0  0  0  0  0
   -2.5981   -1.5000    0.0000 C   0  0  0  0  0  0  0  0  0  0  0  0
   -3.4641   -2.0000    0.0000 C   0  0  0  0  0  0  0  0  0  0  0  0
   -3.4641   -3.0000    0.0000 C   0  0  0  0  0  0  0  0  0  0  0  0
   -4.3301   -3.5000    0.0000 C   0  0  0  0  0  0  0  0  0  0  0  0
   -5.1962   -3.0000    0.0000 C   0  0  0  0  0  0  0  0  0  0  0  0
   -4.3301   -4.5000    0.0000 O   0  0  0  0  0  0  0  0  0  0  0  0
   -2.5981   -0.5000    0.0000 C   0  0  0  0  0  0  0  0  0  0  0  0
   -1.7321    0.0000    0.0000 C   0  0  0  0  0  0  0  0  0  0  0  0
   -0.8660   -0.5000    0.0000 C   0  0  0  0  0  0  0  0  0  0  0  0
   -0.0000   -0.0000    0.0000 C   0  0  0  0  0  0  0  0  0  0  0  0
  1  2  1  0  0  0  0
  2  3  1  0  0  0  0
  3 17  1  0  0  0  0
  3  4  2  0  0  0  0
  4  5  1  0  0  0  0
  5  6  2  0  0  0  0
  6 16  1  0  0  0  0
  6  7  1  0  0  0  0
  7  8  2  0  0  0  0
  8  9  1  0  0  0  0
  8 14  1  0  0  0  0
  9 10  1  0  0  0  0
 10 11  1  0  0  0  0
 11 12  1  0  0  0  0
 11 13  2  0  0  0  0
 14 15  2  0  0  0  0
 15 16  1  0  0  0  0
 16 17  2  0  0  0  0
M  END
$$$$

 OpenBabel10082008492D

 46 49  0  0  1  0  0  0  0  0999 V2000
    1.6974    0.9800    0.0000 C   0  0  0  0  0  0  0  0  0  0  0  0
    0.8487    1.4700    0.0000 O   0  0  0  0  0  0  0  0  0  0  0  0
   -0.0000    0.9800    0.0000 C   0  0  0  0  0  0  0  0  0  0  0  0
   -0.8487    1.4700    0.0000 C   0  0  0  0  0  0  0  0  0  0  0  0
   -1.6974    0.9800    0.0000 C   0  0  0  0  0  0  0  0  0  0  0  0
   -1.6974   -0.0000    0.0000 C   0  0  0  0  0  0  0  0  0  0  0  0
   -0.8487   -0.4900    0.0000 C   0  0  0  0  0  0  0  0  0  0  0  0
   -0.8487   -1.4700    0.0000 C   0  0  0  0  0  0  0  0  0  0  0  0
   -1.6974   -1.9600    0.0000 C   0  0  0  0  0  0  0  0  0  0  0  0
   -2.5461   -1.4700    0.0000 C   0  0  0  0  0  0  0  0  0  0  0  0
   -1.6974   -2.9400    0.0000 N   0  0  0  0  0  0  0  0  0  0  0  0
   -3.3948   -3.9200    0.0000 C   0  0  0  0  0  0  0  0  0  0  0  0
   -4.2435   -3.4300    0.0000 C   0  0  0  0  0  0  0  0  0  0  0  0
   -4.2435   -2.4500    0.0000 C   0  0  0  0  0  0  0  0  0  0  0  0
   -3.3948   -1.9600    0.0000 F   0  0  0  0  0  0  0  0  0  0  0  0
   -5.0922   -1.9600    0.0000 C   0  0  0  0  0  0  0  0  0  0  0  0
   -5.9409   -2.4500    0.0000 C   0  0  0  0  0  0  0  0  0  0  0  0
   -5.9409   -3.4300    0.0000 C   0  0  0  0  0  0  0  0  0  0  0  0
   -5.0922   -3.9200    0.0000 C   0  0  0  0  0  0  0  0  0  0  0  0
   -5.0922   -4.9000    0.0000 C   0  0  0  0  0  0  0  0  0  0  0  0
   -5.5822   -5.7487    0.0000 F   0  0  0  0  0  0  0  0  0  0  0  0
   -6.0722   -4.9000    0.0000 F   0  0  0  0  0  0  0  0  0  0  0  0
   -4.2435   -5.3900    0.0000 F   0  0  0  0  0  0  0  0  0  0  0  0
   -0.8487   -3.4300    0.0000 C   0  0  0  0  0  0  0  0  0  0  0  0
   -0.8487   -4.4100    0.0000 O   0  0  0  0  0  0  0  0  0  0  0  0
    0.0000   -2.9400    0.0000 N   0  0  0  0  0  0  0  0  0  0  0  0
    0.8487   -3.4300    0.0000 C   0  0  0  0  0  0  0  0  0  0  0  0
    0.8487   -4.4100    0.0000 C   0  0  2  0  0  0  0  0  0  0  0  0
   -0.1313   -4.4100    0.0000 H   0  0  0  0  0  0  0  0  0  0  0  0
    0.8487   -5.3900    0.0000 N   0  0  0  0  0  0  0  0  0  0  0  0
    0.0000   -5.8800    0.0000 C   0  0  0  0  0  0  0  0  0  0  0  0
   -0.8487   -5.3900    0.0000 C   0  0  0  0  0  0  0  0  0  0  0  0
   -1.6974   -5.8800    0.0000 C   0  0  0  0  0  0  0  0  0  0  0  0
   -2.5461   -5.3900    0.0000 C   0  0  0  0  0  0  0  0  0  0  0  0
   -2.5461   -4.4100    0.0000 O   0  0  0  0  0  0  0  0  0  0  0  0
   -3.3948   -5.8800    0.0000 O   0  0  0  0  0  0  0  0  0  0  0  0
    1.8287   -4.4100    0.0000 C   0  0  0  0  0  0  0  0  0  0  0  0
    2.3187   -3.5613    0.0000 C   0  0  0  0  0  0  0  0  0  0  0  0
    3.2987   -3.5613    0.0000 C   0  0  0  0  0  0  0  0  0  0  0  0
    3.7887   -4.4100    0.0000 C   0  0  0  0  0  0  0  0  0  0  0  0
    3.2987   -5.2587    0.0000 C   0  0  0  0  0  0  0  0  0  0  0  0
    2.3187   -5.2587    0.0000 C   0  0  0  0  0  0  0  0  0  0  0  0
    0.0000   -1.9600    0.0000 C   0  0  0  0  0  0  0  0  0  0  0  0
    0.8487   -1.4700    0.0000 O   0  0  0  0  0  0  0  0  0  0  0  0
   -0.0000   -0.0000    0.0000 C   0  0  0  0  0  0  0  0  0  0  0  0
    0.8487   -0.4900    0.0000 F   0  0  0  0  0  0  0  0  0  0  0  0
  1  2  1  0  0  0  0
  2  3  1  0  0  0  0
  3 45  1  0  0  0  0
  3  4  2  0  0  0  0
  4  5  1  0  0  0  0
  5  6  2  0  0  0  0
  6  7  1  0  0  0  0
  7  8  1  0  0  0  0
  7 45  2  0  0  0  0
  8 43  1  0  0  0  0
  8  9  2  0  0  0  0
  9 10  1  0  0  0  0
  9 11  1  0  0  0  0
 11 12  1  0  0  0  0
 11 24  1  0  0  0  0
 12 13  1  0  0  0  0
 13 19  1  0  0  0  0
 13 14  2  0  0  0  0
 14 15  1  0  0  0  0
 14 16  1  0  0  0  0
 16 17  2  0  0  0  0
 17 18  1  0  0  0  0
 18 19  2  0  0  0  0
 19 20  1  0  0  0  0
 20 21  1  0  0  0  0
 20 22  1  0  0  0  0
 20 23  1  0  0  0  0
 24 25  2  0  0  0  0
 24 26  1  0  0  0  0
 26 27  1  0  0  0  0
 26 43  1  0  0  0  0
 27 28  1  0  0  0  0
 28 29  1  6  0  0  0
 28 30  1  0  0  0  0
 28 37  1  0  0  0  0
 30 31  1  0  0  0  0
 31 32  1  0  0  0  0
 32 33  1  0  0  0  0
 33 34  1  0  0  0  0
 34 35  2  0  0  0  0
 34 36  1  0  0  0  0
 37 42  1  0  0  0  0
 37 38  2  0  0  0  0
 38 39  1  0  0  0  0
 39 40  2  0  0  0  0
 40 41  1  0  0  0  0
 41 42  2  0  0  0  0
 43 44  2  0  0  0  0
 45 46  1  0  0  0  0
M  END
$$$$

 OpenBabel10082008492D

 35 39  0  0  1  0  0  0  0  0999 V2000
    3.1608   -0.8783    0.0000 O   0  0  0  0  0  0  0  0  0  0  0  0
    3.1608    0.0136    0.0000 C   0  0  0  0  0  0  0  0  0  0  0  0
    3.9332    0.4596    0.0000 N   0  0  0  0  0  0  0  0  0  0  0  0
    4.7057    0.0136    0.0000 C   0  0  0  0  0  0  0  0  0  0  0  0
    5.4781    0.4595    0.0000 C   0  0  0  0  0  0  0  0  0  0  0  0
    6.2505    0.0136    0.0000 C   0  0  0  0  0  0  0  0  0  0  0  0
    6.2505   -0.8784    0.0000 F   0  0  0  0  0  0  0  0  0  0  0  0
    7.0229    0.4595    0.0000 C   0  0  0  0  0  0  0  0  0  0  0  0
    7.0229    1.3514    0.0000 C   0  0  0  0  0  0  0  0  0  0  0  0
    7.7954    1.7974    0.0000 F   0  0  0  0  0  0  0  0  0  0  0  0
    6.2505    1.7974    0.0000 C   0  0  0  0  0  0  0  0  0  0  0  0
    5.4781    1.3514    0.0000 C   0  0  0  0  0  0  0  0  0  0  0  0
    4.7057    1.7974    0.0000 F   0  0  0  0  0  0  0  0  0  0  0  0
    2.3884    0.4596    0.0000 C   0  0  0  0  0  0  0  0  0  0  0  0
    1.5923   -0.0000    0.0000 C   0  0  0  0  0  0  0  0  0  0  0  0
    0.7961    0.4596    0.0000 N   0  0  0  0  0  0  0  0  0  0  0  0
    0.7962    1.3789    0.0000 C   0  0  0  0  0  0  0  0  0  0  0  0
    1.5923    1.8385    0.0000 C   0  0  0  0  0  0  0  0  0  0  0  0
    1.5923    2.7305    0.0000 O   0  0  0  0  0  0  0  0  0  0  0  0
    2.3884    1.3789    0.0000 C   0  0  0  0  0  0  0  0  0  0  0  0
    3.1608    1.8248    0.0000 O   0  0  0  0  0  0  0  0  0  0  0  0
    0.0000    1.8386    0.0000 C   0  0  0  0  0  0  0  0  0  0  0  0
    0.0001    2.7305    0.0000 O   0  0  0  0  0  0  0  0  0  0  0  0
   -0.7961    1.3789    0.0000 N   0  0  0  0  0  0  0  0  0  0  0  0
   -1.5922    1.8386    0.0000 C   0  0  1  0  0  0  0  0  0  0  0  0
   -1.5922    2.7381    0.0000 H   0  0  0  0  0  0  0  0  0  0  0  0
   -2.5115    1.8386    0.0000 C   0  0  0  0  0  0  0  0  0  0  0  0
   -2.8480    1.2557    0.0000 C   0  0  0  0  0  0  0  0  0  0  0  0
   -2.3883    0.4596    0.0000 C   0  0  2  0  0  0  0  0  0  0  0  0
   -3.1673    0.0099    0.0000 H   0  0  0  0  0  0  0  0  0  0  0  0
   -2.3883    1.3789    0.0000 C   0  0  0  0  0  0  0  0  0  0  0  0
   -1.5922    0.0000    0.0000 O   0  0  0  0  0  0  0  0  0  0  0  0
   -0.7961    0.4597    0.0000 C   0  0  2  0  0  0  0  0  0  0  0  0
   -0.7961   -0.4399    0.0000 H   0  0  0  0  0  0  0  0  0  0  0  0
    0.0000    0.0000    0.0000 C   0  0  0  0  0  0  0  0  0  0  0  0
  1  2  2  0  0  0  0
  2  3  1  0  0  0  0
  2 14  1  0  0  0  0
  3  4  1  0  0  0  0
  4  5  1  0  0  0  0
  5 12  1  0  0  0  0
  5  6  2  0  0  0  0
  6  7  1  0  0  0  0
  6  8  1  0  0  0  0
  8  9  2  0  0  0  0
  9 10  1  0  0  0  0
  9 11  1  0  0  0  0
 11 12  2  0  0  0  0
 12 13  1  0  0  0  0
 14 20  1  0  0  0  0
 14 15  2  0  0  0  0
 15 16  1  0  0  0  0
 16 35  1  0  0  0  0
 16 17  1  0  0  0  0
 17 18  2  0  0  0  0
 17 22  1  0  0  0  0
 18 19  1  0  0  0  0
 18 20  1  0  0  0  0
 20 21  2  0  0  0  0
 22 23  2  0  0  0  0
 22 24  1  0  0  0  0
 24 33  1  0  0  0  0
 24 25  1  0  0  0  0
 25 26  1  1  0  0  0
 25 31  1  0  0  0  0
 25 27  1  0  0  0  0
 27 28  1  0  0  0  0
 28 29  1  0  0  0  0
 29 30  1  1  0  0  0
 29 31  1  0  0  0  0
 29 32  1  0  0  0  0
 32 33  1  0  0  0  0
 33 34  1  6  0  0  0
 33 35  1  0  0  0  0
M  END
$$$$

 OpenBabel10082008492D

 21 23  0  0  0  0  0  0  0  0999 V2000
   -4.5747   -0.4266    0.0000 C   0  0  0  0  0  0  0  0  0  0  0  0
   -3.8416   -1.1068    0.0000 N   0  0  0  0  0  0  0  0  0  0  0  0
   -4.0642   -2.0817    0.0000 C   0  0  0  0  0  0  0  0  0  0  0  0
   -2.8861   -0.8120    0.0000 C   0  0  0  0  0  0  0  0  0  0  0  0
   -2.1530   -1.4922    0.0000 C   0  0  0  0  0  0  0  0  0  0  0  0
   -1.1974   -1.1974    0.0000 C   0  0  0  0  0  0  0  0  0  0  0  0
   -0.9749   -0.2225    0.0000 C   0  0  0  0  0  0  0  0  0  0  0  0
   -1.7568    0.4010    0.0000 C   0  0  0  0  0  0  0  0  0  0  0  0
   -2.6228   -0.0990    0.0000 C   0  0  0  0  0  0  0  0  0  0  0  0
   -3.4888    0.4010    0.0000 C   0  0  0  0  0  0  0  0  0  0  0  0
   -3.4888    1.4010    0.0000 C   0  0  0  0  0  0  0  0  0  0  0  0
   -2.6228    1.9010    0.0000 C   0  0  0  0  0  0  0  0  0  0  0  0
   -1.7568    1.4010    0.0000 C   0  0  0  0  0  0  0  0  0  0  0  0
   -0.9749    2.0245    0.0000 C   0  0  0  0  0  0  0  0  0  0  0  0
   -0.0000    1.8019    0.0000 O   0  0  0  0  0  0  0  0  0  0  0  0
    0.4339    0.9010    0.0000 C   0  0  0  0  0  0  0  0  0  0  0  0
    1.4311    0.9757    0.0000 C   0  0  0  0  0  0  0  0  0  0  0  0
    1.9944    0.1495    0.0000 C   0  0  0  0  0  0  0  0  0  0  0  0
    1.5605   -0.7515    0.0000 C   0  0  0  0  0  0  0  0  0  0  0  0
    0.5633   -0.8262    0.0000 C   0  0  0  0  0  0  0  0  0  0  0  0
    0.0000    0.0000    0.0000 C   0  0  0  0  0  0  0  0  0  0  0  0
  1  2  1  0  0  0  0
  2  3  1  0  0  0  0
  2  4  1  0  0  0  0
  4  5  1  0  0  0  0
  5  6  1  0  0  0  0
  6  7  2  3  0  0  0
  7 21  1  0  0  0  0
  7  8  1  0  0  0  0
  8 13  1  0  0  0  0
  8  9  2  0  0  0  0
  9 10  1  0  0  0  0
 10 11  2  0  0  0  0
 11 12  1  0  0  0  0
 12 13  2  0  0  0  0
 13 14  1  0  0  0  0
 14 15  1  0  0  0  0
 15 16  1  0  0  0  0
 16 21  1  0  0  0  0
 16 17  2  0  0  0  0
 17 18  1  0  0  0  0
 18 19  2  0  0  0  0
 19 20  1  0  0  0  0
 20 21  2  0  0  0  0
M  END
$$$$

 OpenBabel10082008492D

 19 21  0  0  0  0  0  0  0  0999 V2000
    1.9194    1.6801    0.0000 O   0  0  0  0  0  0  0  0  0  0  0  0
    2.2144    0.7722    0.0000 C   0  0  0  0  0  0  0  0  0  0  0  0
    3.1222    0.4773    0.0000 N   0  0  0  0  0  0  0  0  0  0  0  0
    3.1222   -0.4773    0.0000 C   0  0  0  0  0  0  0  0  0  0  0  0
    3.8945   -1.0383    0.0000 O   0  0  0  0  0  0  0  0  0  0  0  0
    2.2144   -0.7722    0.0000 N   0  0  0  0  0  0  0  0  0  0  0  0
    1.6533    0.0000    0.0000 C   0  0  0  0  0  0  0  0  0  0  0  0
    0.0000    0.9545    0.0000 C   0  0  0  0  0  0  0  0  0  0  0  0
   -0.8267    0.4773    0.0000 C   0  0  0  0  0  0  0  0  0  0  0  0
   -1.6533    0.9545    0.0000 C   0  0  0  0  0  0  0  0  0  0  0  0
   -1.6533    1.9091    0.0000 C   0  0  0  0  0  0  0  0  0  0  0  0
   -0.8267    2.3864    0.0000 C   0  0  0  0  0  0  0  0  0  0  0  0
    0.0000    1.9091    0.0000 C   0  0  0  0  0  0  0  0  0  0  0  0
    0.8267   -0.4773    0.0000 C   0  0  0  0  0  0  0  0  0  0  0  0
    0.8267   -1.4318    0.0000 C   0  0  0  0  0  0  0  0  0  0  0  0
    0.0000   -1.9091    0.0000 C   0  0  0  0  0  0  0  0  0  0  0  0
   -0.8267   -1.4318    0.0000 C   0  0  0  0  0  0  0  0  0  0  0  0
   -0.8267   -0.4773    0.0000 C   0  0  0  0  0  0  0  0  0  0  0  0
    0.0000   -0.0000    0.0000 C   0  0  0  0  0  0  0  0  0  0  0  0
  1  2  2  0  0  0  0
  2  7  1  0  0  0  0
  2  3  1  0  0  0  0
  3  4  2  0  0  0  0
  4  5  1  0  0  0  0
  4  6  1  0  0  0  0
  6  7  1  0  0  0  0
  7  8  1  0  0  0  0
  7 14  1  0  0  0  0
  8 13  1  0  0  0  0
  8  9  2  0  0  0  0
  9 10  1  0  0  0  0
 10 11  2  0  0  0  0
 11 12  1  0  0  0  0
 12 13  2  0  0  0  0
 14 19  1  0  0  0  0
 14 15  2  0  0  0  0
 15 16  1  0  0  0  0
 16 17  2  0  0  0  0
 17 18  1  0  0  0  0
 18 19  2  0  0  0  0
M  END
$$$$

 OpenBabel10082008492D

 31 34  0  0  1  0  0  0  0  0999 V2000
   -2.6091   -1.1295    0.0000 C   0  0  0  0  0  0  0  0  0  0  0  0
   -2.6091   -0.1295    0.0000 N   0  0  0  0  0  0  0  0  0  0  0  0
   -3.4751    0.3705    0.0000 C   0  0  0  0  0  0  0  0  0  0  0  0
   -3.4751    1.3705    0.0000 C   0  0  0  0  0  0  0  0  0  0  0  0
   -2.6091    1.8705    0.0000 C   0  0  1  0  0  0  0  0  0  0  0  0
   -2.1091    2.7365    0.0000 H   0  0  0  0  0  0  0  0  0  0  0  0
   -3.1091    2.7365    0.0000 N   0  0  0  0  0  0  0  0  0  0  0  0
   -4.1091    2.7365    0.0000 C   0  0  0  0  0  0  0  0  0  0  0  0
   -4.6091    3.6026    0.0000 O   0  0  0  0  0  0  0  0  0  0  0  0
   -4.6091    1.8705    0.0000 N   0  0  0  0  0  0  0  0  0  0  0  0
   -5.6091    1.8705    0.0000 C   0  0  0  0  0  0  0  0  0  0  0  0
   -6.1091    1.0045    0.0000 C   0  0  0  0  0  0  0  0  0  0  0  0
   -7.1091    1.0045    0.0000 C   0  0  0  0  0  0  0  0  0  0  0  0
   -7.6091    1.8705    0.0000 C   0  0  0  0  0  0  0  0  0  0  0  0
   -8.6091    1.8705    0.0000 C   0  0  0  0  0  0  0  0  0  0  0  0
   -9.6091    1.8705    0.0000 N   0  0  0  0  0  0  0  0  0  0  0  0
   -7.1091    2.7365    0.0000 C   0  0  0  0  0  0  0  0  0  0  0  0
   -6.1091    2.7365    0.0000 C   0  0  0  0  0  0  0  0  0  0  0  0
   -1.7431    1.3705    0.0000 C   0  0  0  0  0  0  0  0  0  0  0  0
   -1.7431    0.3705    0.0000 C   0  0  2  0  0  0  0  0  0  0  0  0
   -1.8736   -0.6209    0.0000 H   0  0  0  0  0  0  0  0  0  0  0  0
   -0.7771    0.6293    0.0000 C   0  0  0  0  0  0  0  0  0  0  0  0
   -0.4188    1.5629    0.0000 N   0  0  0  0  0  0  0  0  0  0  0  0
    0.5799    1.5106    0.0000 C   0  0  0  0  0  0  0  0  0  0  0  0
    1.2870    2.2177    0.0000 C   0  0  0  0  0  0  0  0  0  0  0  0
    2.2529    1.9589    0.0000 C   0  0  0  0  0  0  0  0  0  0  0  0
    2.5117    0.9929    0.0000 C   0  0  0  0  0  0  0  0  0  0  0  0
    1.8046    0.2858    0.0000 C   0  0  0  0  0  0  0  0  0  0  0  0
    0.8387    0.5446    0.0000 C   0  0  0  0  0  0  0  0  0  0  0  0
    0.0000   -0.0000    0.0000 N   0  0  0  0  0  0  0  0  0  0  0  0
   -0.0523   -0.9986    0.0000 H   0  0  0  0  0  0  0  0  0  0  0  0
  1  2  1  0  0  0  0
  2 20  1  0  0  0  0
  2  3  1  0  0  0  0
  3  4  1  0  0  0  0
  4  5  1  0  0  0  0
  5  6  1  6  0  0  0
  5  7  1  0  0  0  0
  5 19  1  0  0  0  0
  7  8  1  0  0  0  0
  8  9  2  0  0  0  0
  8 10  1  0  0  0  0
 10 11  1  0  0  0  0
 11 18  1  0  0  0  0
 11 12  2  0  0  0  0
 12 13  1  0  0  0  0
 13 14  2  0  0  0  0
 14 15  1  0  0  0  0
 14 17  1  0  0  0  0
 15 16  3  0  0  0  0
 17 18  2  0  0  0  0
 19 20  1  0  0  0  0
 20 21  1  1  0  0  0
 20 22  1  0  0  0  0
 22 30  1  0  0  0  0
 22 23  2  0  0  0  0
 23 24  1  0  0  0  0
 24 29  1  0  0  0  0
 24 25  2  0  0  0  0
 25 26  1  0  0  0  0
 26 27  2  0  0  0  0
 27 28  1  0  0  0  0
 28 29  2  0  0  0  0
 29 30  1  0  0  0  0
 30 31  1  0  0  0  0
M  END
$$$$

 OpenBabel10082008492D

 25 26  0  0  1  0  0  0  0  0999 V2000
    1.7321   -6.0000    0.0000 C   0  0  0  0  0  0  0  0  0  0  0  0
    0.8660   -5.5000    0.0000 C   0  0  0  0  0  0  0  0  0  0  0  0
    0.0000   -6.0000    0.0000 C   0  0  0  0  0  0  0  0  0  0  0  0
   -0.8660   -5.5000    0.0000 N   0  0  0  0  0  0  0  0  0  0  0  0
   -1.7321   -6.0000    0.0000 C   0  0  0  0  0  0  0  0  0  0  0  0
   -2.5981   -5.5000    0.0000 C   0  0  3  0  0  0  0  0  0  0  0  0
   -3.4641   -6.0000    0.0000 O   0  0  0  0  0  0  0  0  0  0  0  0
   -2.5981   -4.5000    0.0000 C   0  0  0  0  0  0  0  0  0  0  0  0
   -3.4641   -4.0000    0.0000 O   0  0  0  0  0  0  0  0  0  0  0  0
   -3.4641   -3.0000    0.0000 C   0  0  0  0  0  0  0  0  0  0  0  0
   -4.3301   -2.5000    0.0000 C   0  0  0  0  0  0  0  0  0  0  0  0
   -4.3301   -1.5000    0.0000 C   0  0  0  0  0  0  0  0  0  0  0  0
   -3.4641   -1.0000    0.0000 C   0  0  0  0  0  0  0  0  0  0  0  0
   -2.5981   -1.5000    0.0000 C   0  0  0  0  0  0  0  0  0  0  0  0
   -2.5981   -2.5000    0.0000 C   0  0  0  0  0  0  0  0  0  0  0  0
   -1.7321   -3.0000    0.0000 C   0  0  0  0  0  0  0  0  0  0  0  0
   -1.7321   -4.0000    0.0000 O   0  0  0  0  0  0  0  0  0  0  0  0
   -0.8660   -2.5000    0.0000 C   0  0  0  0  0  0  0  0  0  0  0  0
   -0.8660   -1.5000    0.0000 C   0  0  0  0  0  0  0  0  0  0  0  0
    0.0000   -1.0000    0.0000 C   0  0  0  0  0  0  0  0  0  0  0  0
    0.8660   -1.5000    0.0000 C   0  0  0  0  0  0  0  0  0  0  0  0
    1.7321   -1.0000    0.0000 C   0  0  0  0  0  0  0  0  0  0  0  0
    1.7321    0.0000    0.0000 C   0  0  0  0  0  0  0  0  0  0  0  0
    0.8660    0.5000    0.0000 C   0  0  0  0  0  0  0  0  0  0  0  0
   -0.0000   -0.0000    0.0000 C   0  0  0  0  0  0  0  0  0  0  0  0
  1  2  1  0  0  0  0
  2  3  1  0  0  0  0
  3  4  1  0  0  0  0
  4  5  1  0  0  0  0
  5  6  1  0  0  0  0
  6  7  1  0  0  0  0
  6  8  1  0  0  0  0
  8  9  1  0  0  0  0
  9 10  1  0  0  0  0
 10 15  1  0  0  0  0
 10 11  2  0  0  0  0
 11 12  1  0  0  0  0
 12 13  2  0  0  0  0
 13 14  1  0  0  0  0
 14 15  2  0  0  0  0
 15 16  1  0  0  0  0
 16 17  2  0  0  0  0
 16 18  1  0  0  0  0
 18 19  1  0  0  0  0
 19 20  1  0  0  0  0
 20 25  1  0  0  0  0
 20 21  2  0  0  0  0
 21 22  1  0  0  0  0
 22 23  2  0  0  0  0
 23 24  1  0  0  0  0
 24 25  2  0  0  0  0
M  END
$$$$

 OpenBabel10082008492D

 19 20  0  0  0  0  0  0  0  0999 V2000
    2.6831   -6.3090    0.0000 C   0  0  0  0  0  0  0  0  0  0  0  0
    1.8171   -5.8090    0.0000 C   0  0  0  0  0  0  0  0  0  0  0  0
    1.8171   -4.8090    0.0000 C   0  0  0  0  0  0  0  0  0  0  0  0
    0.9511   -4.3090    0.0000 N   0  0  0  0  0  0  0  0  0  0  0  0
    0.0850   -4.8090    0.0000 C   0  0  0  0  0  0  0  0  0  0  0  0
    0.0850   -5.8090    0.0000 C   0  0  0  0  0  0  0  0  0  0  0  0
    0.9511   -6.3090    0.0000 C   0  0  0  0  0  0  0  0  0  0  0  0
    0.9511   -3.3090    0.0000 C   0  0  0  0  0  0  0  0  0  0  0  0
    1.8171   -2.8090    0.0000 C   0  0  0  0  0  0  0  0  0  0  0  0
    1.8171   -1.8090    0.0000 C   0  0  0  0  0  0  0  0  0  0  0  0
    2.6831   -1.3090    0.0000 C   0  0  0  0  0  0  0  0  0  0  0  0
    2.6831   -0.3090    0.0000 C   0  0  0  0  0  0  0  0  0  0  0  0
    1.8171    0.1910    0.0000 C   0  0  0  0  0  0  0  0  0  0  0  0
    0.9511   -0.3090    0.0000 C   0  0  0  0  0  0  0  0  0  0  0  0
    0.9511   -1.3090    0.0000 C   0  0  0  0  0  0  0  0  0  0  0  0
    0.0000   -1.6180    0.0000 C   0  0  0  0  0  0  0  0  0  0  0  0
   -0.5878   -0.8090    0.0000 C   0  0  0  0  0  0  0  0  0  0  0  0
   -1.5878   -0.8090    0.0000 O   0  0  0  0  0  0  0  0  0  0  0  0
    0.0000    0.0000    0.0000 N   0  0  0  0  0  0  0  0  0  0  0  0
  1  2  1  0  0  0  0
  2  3  1  0  0  0  0
  3  4  1  0  0  0  0
  4  5  1  0  0  0  0
  4  8  1  0  0  0  0
  5  6  1  0  0  0  0
  6  7  1  0  0  0  0
  8  9  1  0  0  0  0
  9 10  1  0  0  0  0
 10 15  1  0  0  0  0
 10 11  2  0  0  0  0
 11 12  1  0  0  0  0
 12 13  2  0  0  0  0
 13 14  1  0  0  0  0
 14 19  1  0  0  0  0
 14 15  2  0  0  0  0
 15 16  1  0  0  0  0
 16 17  1  0  0  0  0
 17 18  2  0  0  0  0
 17 19  1  0  0  0  0
M  END
$$$$

 OpenBabel10082008492D

 33 36  0  0  0  0  0  0  0  0999 V2000
    2.5981   -0.5000    0.0000 C   0  0  0  0  0  0  0  0  0  0  0  0
    1.7321    0.0000    0.0000 O   0  0  0  0  0  0  0  0  0  0  0  0
    0.8660   -0.5000    0.0000 C   0  0  0  0  0  0  0  0  0  0  0  0
    0.8660   -1.5000    0.0000 C   0  0  0  0  0  0  0  0  0  0  0  0
    0.0000   -2.0000    0.0000 C   0  0  0  0  0  0  0  0  0  0  0  0
    0.0000   -3.0000    0.0000 O   0  0  0  0  0  0  0  0  0  0  0  0
    0.8660   -3.5000    0.0000 C   0  0  0  0  0  0  0  0  0  0  0  0
   -0.8660   -1.5000    0.0000 C   0  0  0  0  0  0  0  0  0  0  0  0
   -0.8660   -0.5000    0.0000 C   0  0  0  0  0  0  0  0  0  0  0  0
   -1.7321    0.0000    0.0000 N   0  0  0  0  0  0  0  0  0  0  0  0
   -1.7321    1.0000    0.0000 C   0  0  0  0  0  0  0  0  0  0  0  0
   -0.8660    1.5000    0.0000 C   0  0  0  0  0  0  0  0  0  0  0  0
   -0.0000    1.0000    0.0000 N   0  0  0  0  0  0  0  0  0  0  0  0
    0.8660    1.5000    0.0000 C   0  0  0  0  0  0  0  0  0  0  0  0
    1.7321    1.0000    0.0000 C   0  0  0  0  0  0  0  0  0  0  0  0
    0.8660    2.5000    0.0000 C   0  0  0  0  0  0  0  0  0  0  0  0
   -2.5981   -0.5000    0.0000 C   0  0  0  0  0  0  0  0  0  0  0  0
   -2.5981   -1.5000    0.0000 C   0  0  0  0  0  0  0  0  0  0  0  0
   -3.4641   -2.0000    0.0000 C   0  0  0  0  0  0  0  0  0  0  0  0
   -4.3301   -1.5000    0.0000 C   0  0  0  0  0  0  0  0  0  0  0  0
   -5.1962   -2.0000    0.0000 N   0  0  0  0  0  0  0  0  0  0  0  0
   -6.0622   -1.5000    0.0000 C   0  0  0  0  0  0  0  0  0  0  0  0
   -6.0622   -0.5000    0.0000 C   0  0  0  0  0  0  0  0  0  0  0  0
   -6.9282    0.0000    0.0000 C   0  0  0  0  0  0  0  0  0  0  0  0
   -7.8417   -0.4067    0.0000 C   0  0  0  0  0  0  0  0  0  0  0  0
   -8.5109    0.3364    0.0000 N   0  0  0  0  0  0  0  0  0  0  0  0
   -8.0109    1.2024    0.0000 N   0  0  0  0  0  0  0  0  0  0  0  0
   -8.4176    2.1160    0.0000 C   0  0  0  0  0  0  0  0  0  0  0  0
   -7.0327    0.9945    0.0000 C   0  0  0  0  0  0  0  0  0  0  0  0
   -5.1962    0.0000    0.0000 N   0  0  0  0  0  0  0  0  0  0  0  0
   -4.3301   -0.5000    0.0000 C   0  0  0  0  0  0  0  0  0  0  0  0
   -3.4641    0.0000    0.0000 C   0  0  0  0  0  0  0  0  0  0  0  0
    0.0000    0.0000    0.0000 C   0  0  0  0  0  0  0  0  0  0  0  0
  1  2  1  0  0  0  0
  2  3  1  0  0  0  0
  3 33  1  0  0  0  0
  3  4  2  0  0  0  0
  4  5  1  0  0  0  0
  5  6  1  0  0  0  0
  5  8  2  0  0  0  0
  6  7  1  0  0  0  0
  8  9  1  0  0  0  0
  9 10  1  0  0  0  0
  9 33  2  0  0  0  0
 10 11  1  0  0  0  0
 10 17  1  0  0  0  0
 11 12  1  0  0  0  0
 12 13  1  0  0  0  0
 13 14  1  0  0  0  0
 14 15  1  0  0  0  0
 14 16  1  0  0  0  0
 17 32  1  0  0  0  0
 17 18  2  0  0  0  0
 18 19  1  0  0  0  0
 19 20  2  0  0  0  0
 20 31  1  0  0  0  0
 20 21  1  0  0  0  0
 21 22  2  0  0  0  0
 22 23  1  0  0  0  0
 23 24  1  0  0  0  0
 23 30  2  0  0  0  0
 24 29  2  0  0  0  0
 24 25  1  0  0  0  0
 25 26  2  0  0  0  0
 26 27  1  0  0  0  0
 27 28  1  0  0  0  0
 27 29  1  0  0  0  0
 30 31  1  0  0  0  0
 31 32  2  0  0  0  0
M  END
$$$$

 OpenBabel10082008492D

 38 40  0  0  1  0  0  0  0  0999 V2000
    2.7321   -0.0000    0.0000 C   0  0  0  0  0  0  0  0  0  0  0  0
    2.7321    1.0000    0.0000 C   0  0  0  0  0  0  0  0  0  0  0  0
    3.5981    1.5000    0.0000 C   0  0  0  0  0  0  0  0  0  0  0  0
    1.8660    1.5000    0.0000 C   0  0  0  0  0  0  0  0  0  0  0  0
    1.0000    1.0000    0.0000 N   0  0  0  0  0  0  0  0  0  0  0  0
    0.1340    1.5000    0.0000 C   0  0  0  0  0  0  0  0  0  0  0  0
    0.1340    2.5000    0.0000 C   0  0  1  0  0  0  0  0  0  0  0  0
    1.1340    2.5000    0.0000 H   0  0  0  0  0  0  0  0  0  0  0  0
    0.6340    3.3660    0.0000 O   0  0  0  0  0  0  0  0  0  0  0  0
   -0.7321    3.0000    0.0000 C   0  0  2  0  0  0  0  0  0  0  0  0
   -0.2321    3.8660    0.0000 H   0  0  0  0  0  0  0  0  0  0  0  0
   -1.5981    3.5000    0.0000 C   0  0  0  0  0  0  0  0  0  0  0  0
   -1.5981    4.5000    0.0000 C   0  0  0  0  0  0  0  0  0  0  0  0
   -2.4641    5.0000    0.0000 C   0  0  0  0  0  0  0  0  0  0  0  0
   -2.4641    6.0000    0.0000 C   0  0  0  0  0  0  0  0  0  0  0  0
   -1.5981    6.5000    0.0000 C   0  0  0  0  0  0  0  0  0  0  0  0
   -0.7321    6.0000    0.0000 C   0  0  0  0  0  0  0  0  0  0  0  0
   -0.7321    5.0000    0.0000 C   0  0  0  0  0  0  0  0  0  0  0  0
   -1.2321    2.1340    0.0000 N   0  0  0  0  0  0  0  0  0  0  0  0
   -2.2321    2.1340    0.0000 C   0  0  0  0  0  0  0  0  0  0  0  0
   -2.7321    3.0000    0.0000 O   0  0  0  0  0  0  0  0  0  0  0  0
   -2.7321    1.2679    0.0000 O   0  0  0  0  0  0  0  0  0  0  0  0
   -3.7321    1.2679    0.0000 C   0  0  1  0  0  0  0  0  0  0  0  0
   -3.2321    2.1340    0.0000 H   0  0  0  0  0  0  0  0  0  0  0  0
   -3.8366    0.2734    0.0000 C   0  0  0  0  0  0  0  0  0  0  0  0
   -4.8147    0.0655    0.0000 C   0  0  0  0  0  0  0  0  0  0  0  0
   -5.3147    0.9315    0.0000 O   0  0  0  0  0  0  0  0  0  0  0  0
   -4.6456    1.6747    0.0000 C   0  0  0  0  0  0  0  0  0  0  0  0
    1.0000   -0.0000    0.0000 S   0  0  0  0  0  0  0  0  0  0  0  0
    2.0000   -0.0000    0.0000 O   0  0  0  0  0  0  0  0  0  0  0  0
    1.0000   -1.0000    0.0000 O   0  0  0  0  0  0  0  0  0  0  0  0
   -0.0000   -0.0000    0.0000 C   0  0  0  0  0  0  0  0  0  0  0  0
   -0.5000    0.8660    0.0000 C   0  0  0  0  0  0  0  0  0  0  0  0
   -1.5000    0.8660    0.0000 C   0  0  0  0  0  0  0  0  0  0  0  0
   -2.0000    0.0000    0.0000 C   0  0  0  0  0  0  0  0  0  0  0  0
   -3.0000    0.0000    0.0000 N   0  0  0  0  0  0  0  0  0  0  0  0
   -1.5000   -0.8660    0.0000 C   0  0  0  0  0  0  0  0  0  0  0  0
   -0.5000   -0.8660    0.0000 C   0  0  0  0  0  0  0  0  0  0  0  0
  1  2  1  0  0  0  0
  2  3  1  0  0  0  0
  2  4  1  0  0  0  0
  4  5  1  0  0  0  0
  5  6  1  0  0  0  0
  5 29  1  0  0  0  0
  6  7  1  0  0  0  0
  7  8  1  1  0  0  0
  7  9  1  0  0  0  0
  7 10  1  0  0  0  0
 10 11  1  6  0  0  0
 10 12  1  0  0  0  0
 10 19  1  0  0  0  0
 12 13  1  0  0  0  0
 13 18  1  0  0  0  0
 13 14  2  0  0  0  0
 14 15  1  0  0  0  0
 15 16  2  0  0  0  0
 16 17  1  0  0  0  0
 17 18  2  0  0  0  0
 19 20  1  0  0  0  0
 20 21  2  0  0  0  0
 20 22  1  0  0  0  0
 22 23  1  0  0  0  0
 23 24  1  6  0  0  0
 23 28  1  0  0  0  0
 23 25  1  0  0  0  0
 25 26  1  0  0  0  0
 26 27  1  0  0  0  0
 27 28  1  0  0  0  0
 29 30  2  0  0  0  0
 29 31  2  0  0  0  0
 29 32  1  0  0  0  0
 32 38  1  0  0  0  0
 32 33  2  0  0  0  0
 33 34  1  0  0  0  0
 34 35  2  0  0  0  0
 35 36  1  0  0  0  0
 35 37  1  0  0  0  0
 37 38  2  0  0  0  0
M  END
$$$$

 OpenBabel10082008492D

 26 28  0  0  1  0  0  0  0  0999 V2000
   -4.3301    2.5000    0.0000 O   0  0  0  0  0  0  0  0  0  0  0  0
   -4.3301    1.5000    0.0000 C   0  0  0  0  0  0  0  0  0  0  0  0
   -3.4641    1.0000    0.0000 C   0  0  0  0  0  0  0  0  0  0  0  0
   -2.5981    1.5000    0.0000 O   0  0  0  0  0  0  0  0  0  0  0  0
   -1.7321    1.0000    0.0000 C   0  0  0  0  0  0  0  0  0  0  0  0
   -0.8660    1.5000    0.0000 C   0  0  0  0  0  0  0  0  0  0  0  0
   -0.0000    1.0000    0.0000 N   0  0  0  0  0  0  0  0  0  0  0  0
    0.8660    1.5000    0.0000 C   0  0  0  0  0  0  0  0  0  0  0  0
    1.7321    1.0000    0.0000 C   0  0  0  0  0  0  0  0  0  0  0  0
    1.7321    0.0000    0.0000 N   0  0  0  0  0  0  0  0  0  0  0  0
    2.5981   -0.5000    0.0000 C   0  0  3  0  0  0  0  0  0  0  0  0
    2.5981   -1.5000    0.0000 C   0  0  0  0  0  0  0  0  0  0  0  0
    3.4641   -2.0000    0.0000 C   0  0  0  0  0  0  0  0  0  0  0  0
    3.4641   -3.0000    0.0000 C   0  0  0  0  0  0  0  0  0  0  0  0
    2.5981   -3.5000    0.0000 C   0  0  0  0  0  0  0  0  0  0  0  0
    1.7321   -3.0000    0.0000 C   0  0  0  0  0  0  0  0  0  0  0  0
    1.7321   -2.0000    0.0000 C   0  0  0  0  0  0  0  0  0  0  0  0
    3.4641   -0.0000    0.0000 C   0  0  0  0  0  0  0  0  0  0  0  0
    3.4641    1.0000    0.0000 C   0  0  0  0  0  0  0  0  0  0  0  0
    4.3301    1.5000    0.0000 C   0  0  0  0  0  0  0  0  0  0  0  0
    5.1962    1.0000    0.0000 C   0  0  0  0  0  0  0  0  0  0  0  0
    6.0622    1.5000    0.0000 Cl  0  0  0  0  0  0  0  0  0  0  0  0
    5.1962   -0.0000    0.0000 C   0  0  0  0  0  0  0  0  0  0  0  0
    4.3301   -0.5000    0.0000 C   0  0  0  0  0  0  0  0  0  0  0  0
    0.8660   -0.5000    0.0000 C   0  0  0  0  0  0  0  0  0  0  0  0
    0.0000   -0.0000    0.0000 C   0  0  0  0  0  0  0  0  0  0  0  0
  1  2  1  0  0  0  0
  2  3  1  0  0  0  0
  3  4  1  0  0  0  0
  4  5  1  0  0  0  0
  5  6  1  0  0  0  0
  6  7  1  0  0  0  0
  7 26  1  0  0  0  0
  7  8  1  0  0  0  0
  8  9  1  0  0  0  0
  9 10  1  0  0  0  0
 10 11  1  0  0  0  0
 10 25  1  0  0  0  0
 11 12  1  0  0  0  0
 11 18  1  0  0  0  0
 12 17  1  0  0  0  0
 12 13  2  0  0  0  0
 13 14  1  0  0  0  0
 14 15  2  0  0  0  0
 15 16  1  0  0  0  0
 16 17  2  0  0  0  0
 18 24  1  0  0  0  0
 18 19  2  0  0  0  0
 19 20  1  0  0  0  0
 20 21  2  0  0  0  0
 21 22  1  0  0  0  0
 21 23  1  0  0  0  0
 23 24  2  0  0  0  0
 25 26  1  0  0  0  0
M  END
$$$$

 OpenBabel10082008492D

 15 15  0  0  0  0  0  0  0  0999 V2000
   -2.5981   -0.5000    0.0000 N   0  0  0  0  0  0  0  0  0  0  0  0
   -2.5981   -1.5000    0.0000 C   0  0  0  0  0  0  0  0  0  0  0  0
   -3.4641   -2.0000    0.0000 N   0  0  0  0  0  0  0  0  0  0  0  0
   -1.7321   -2.0000    0.0000 N   0  0  0  0  0  0  0  0  0  0  0  0
   -0.8660   -1.5000    0.0000 C   0  0  0  0  0  0  0  0  0  0  0  0
   -0.0000   -2.0000    0.0000 O   0  0  0  0  0  0  0  0  0  0  0  0
   -0.8660   -0.5000    0.0000 C   0  0  0  0  0  0  0  0  0  0  0  0
   -1.7321   -0.0000    0.0000 N   0  0  0  0  0  0  0  0  0  0  0  0
   -1.7321    1.0000    0.0000 C   0  0  0  0  0  0  0  0  0  0  0  0
   -2.5981    1.5000    0.0000 Cl  0  0  0  0  0  0  0  0  0  0  0  0
   -0.8660    1.5000    0.0000 C   0  0  0  0  0  0  0  0  0  0  0  0
   -0.8660    2.5000    0.0000 N   0  0  0  0  0  0  0  0  0  0  0  0
   -0.0000    1.0000    0.0000 N   0  0  0  0  0  0  0  0  0  0  0  0
    0.0000   -0.0000    0.0000 C   0  0  0  0  0  0  0  0  0  0  0  0
    0.8660   -0.5000    0.0000 N   0  0  0  0  0  0  0  0  0  0  0  0
  1  2  2  0  0  0  0
  2  3  1  0  0  0  0
  2  4  1  0  0  0  0
  4  5  1  0  0  0  0
  5  6  2  0  0  0  0
  5  7  1  0  0  0  0
  7 14  1  0  0  0  0
  7  8  2  0  0  0  0
  8  9  1  0  0  0  0
  9 10  1  0  0  0  0
  9 11  2  0  0  0  0
 11 12  1  0  0  0  0
 11 13  1  0  0  0  0
 13 14  2  0  0  0  0
 14 15  1  0  0  0  0
M  END
$$$$

 OpenBabel10082008492D

 30 33  0  0  0  0  0  0  0  0999 V2000
    2.5981   -1.5000    0.0000 O   0  0  0  0  0  0  0  0  0  0  0  0
    2.5981   -0.5000    0.0000 C   0  0  0  0  0  0  0  0  0  0  0  0
    1.7321   -0.0000    0.0000 C   0  0  0  0  0  0  0  0  0  0  0  0
    0.8660   -0.5000    0.0000 N   0  0  0  0  0  0  0  0  0  0  0  0
    0.8660   -1.5000    0.0000 C   0  0  0  0  0  0  0  0  0  0  0  0
    0.0000   -2.0000    0.0000 C   0  0  0  0  0  0  0  0  0  0  0  0
   -0.8660   -1.5000    0.0000 N   0  0  0  0  0  0  0  0  0  0  0  0
   -1.7321   -2.0000    0.0000 C   0  0  0  0  0  0  0  0  0  0  0  0
   -2.5981   -1.5000    0.0000 C   0  0  0  0  0  0  0  0  0  0  0  0
   -3.4641   -2.0000    0.0000 C   0  0  0  0  0  0  0  0  0  0  0  0
   -4.3301   -1.5000    0.0000 N   0  0  0  0  0  0  0  0  0  0  0  0
   -5.1962   -2.0000    0.0000 C   0  0  0  0  0  0  0  0  0  0  0  0
   -5.1962   -3.0000    0.0000 C   0  0  0  0  0  0  0  0  0  0  0  0
   -6.0622   -3.5000    0.0000 C   0  0  0  0  0  0  0  0  0  0  0  0
   -6.9282   -3.0000    0.0000 C   0  0  0  0  0  0  0  0  0  0  0  0
   -6.9282   -2.0000    0.0000 C   0  0  0  0  0  0  0  0  0  0  0  0
   -6.0622   -1.5000    0.0000 C   0  0  0  0  0  0  0  0  0  0  0  0
   -6.0622   -0.5000    0.0000 S   0  0  0  0  0  0  0  0  0  0  0  0
   -5.1962    0.0000    0.0000 C   0  0  0  0  0  0  0  0  0  0  0  0
   -5.1962    1.0000    0.0000 C   0  0  0  0  0  0  0  0  0  0  0  0
   -4.3301    1.5000    0.0000 C   0  0  0  0  0  0  0  0  0  0  0  0
   -3.4641    1.0000    0.0000 C   0  0  0  0  0  0  0  0  0  0  0  0
   -2.5981    1.5000    0.0000 C   0  0  0  0  0  0  0  0  0  0  0  0
   -2.0981    2.3660    0.0000 F   0  0  0  0  0  0  0  0  0  0  0  0
   -3.0981    2.3660    0.0000 F   0  0  0  0  0  0  0  0  0  0  0  0
   -1.7321    1.0000    0.0000 F   0  0  0  0  0  0  0  0  0  0  0  0
   -3.4641    0.0000    0.0000 C   0  0  0  0  0  0  0  0  0  0  0  0
   -4.3301   -0.5000    0.0000 C   0  0  0  0  0  0  0  0  0  0  0  0
   -0.8660   -0.5000    0.0000 C   0  0  0  0  0  0  0  0  0  0  0  0
   -0.0000   -0.0000    0.0000 C   0  0  0  0  0  0  0  0  0  0  0  0
  1  2  1  0  0  0  0
  2  3  1  0  0  0  0
  3  4  1  0  0  0  0
  4 30  1  0  0  0  0
  4  5  1  0  0  0  0
  5  6  1  0  0  0  0
  6  7  1  0  0  0  0
  7  8  1  0  0  0  0
  7 29  1  0  0  0  0
  8  9  1  0  0  0  0
  9 10  1  0  0  0  0
 10 11  1  0  0  0  0
 11 28  1  0  0  0  0
 11 12  1  0  0  0  0
 12 17  1  0  0  0  0
 12 13  2  0  0  0  0
 13 14  1  0  0  0  0
 14 15  2  0  0  0  0
 15 16  1  0  0  0  0
 16 17  2  0  0  0  0
 17 18  1  0  0  0  0
 18 19  1  0  0  0  0
 19 28  1  0  0  0  0
 19 20  2  0  0  0  0
 20 21  1  0  0  0  0
 21 22  2  0  0  0  0
 22 23  1  0  0  0  0
 22 27  1  0  0  0  0
 23 24  1  0  0  0  0
 23 25  1  0  0  0  0
 23 26  1  0  0  0  0
 27 28  2  0  0  0  0
 29 30  1  0  0  0  0
M  END
$$$$

 OpenBabel10082008492D

 29 32  0  0  0  0  0  0  0  0999 V2000
   -1.9595   -3.1637    0.0000 O   0  0  0  0  0  0  0  0  0  0  0  0
   -2.7026   -2.4945    0.0000 C   0  0  0  0  0  0  0  0  0  0  0  0
   -3.6808   -2.7024    0.0000 N   0  0  0  0  0  0  0  0  0  0  0  0
   -4.0875   -3.6160    0.0000 H   0  0  0  0  0  0  0  0  0  0  0  0
   -4.1808   -1.8364    0.0000 C   0  0  0  0  0  0  0  0  0  0  0  0
   -5.1589   -1.6285    0.0000 C   0  0  0  0  0  0  0  0  0  0  0  0
   -5.4679   -0.6774    0.0000 C   0  0  0  0  0  0  0  0  0  0  0  0
   -4.7988    0.0657    0.0000 C   0  0  0  0  0  0  0  0  0  0  0  0
   -3.8206   -0.1422    0.0000 C   0  0  0  0  0  0  0  0  0  0  0  0
   -3.5116   -1.0933    0.0000 C   0  0  0  0  0  0  0  0  0  0  0  0
   -2.5981   -1.5000    0.0000 N   0  0  0  0  0  0  0  0  0  0  0  0
   -1.7321   -1.0000    0.0000 C   0  0  0  0  0  0  0  0  0  0  0  0
   -0.8660   -1.5000    0.0000 C   0  0  0  0  0  0  0  0  0  0  0  0
   -0.0000   -1.0000    0.0000 N   0  0  0  0  0  0  0  0  0  0  0  0
    0.8660   -1.5000    0.0000 C   0  0  0  0  0  0  0  0  0  0  0  0
    1.7321   -1.0000    0.0000 C   0  0  0  0  0  0  0  0  0  0  0  0
    1.7321   -0.0000    0.0000 N   0  0  0  0  0  0  0  0  0  0  0  0
    2.5981    0.5000    0.0000 C   0  0  0  0  0  0  0  0  0  0  0  0
    3.4641   -0.0000    0.0000 C   0  0  0  0  0  0  0  0  0  0  0  0
    4.3301    0.5000    0.0000 C   0  0  0  0  0  0  0  0  0  0  0  0
    4.3301    1.5000    0.0000 C   0  0  0  0  0  0  0  0  0  0  0  0
    3.4641    2.0000    0.0000 C   0  0  0  0  0  0  0  0  0  0  0  0
    3.4641    3.0000    0.0000 C   0  0  0  0  0  0  0  0  0  0  0  0
    3.9641    3.8660    0.0000 F   0  0  0  0  0  0  0  0  0  0  0  0
    4.4641    3.0000    0.0000 F   0  0  0  0  0  0  0  0  0  0  0  0
    2.5981    3.5000    0.0000 F   0  0  0  0  0  0  0  0  0  0  0  0
    2.5981    1.5000    0.0000 C   0  0  0  0  0  0  0  0  0  0  0  0
    0.8660    0.5000    0.0000 C   0  0  0  0  0  0  0  0  0  0  0  0
   -0.0000   -0.0000    0.0000 C   0  0  0  0  0  0  0  0  0  0  0  0
  1  2  2  0  0  0  0
  2 11  1  0  0  0  0
  2  3  1  0  0  0  0
  3  4  1  0  0  0  0
  3  5  1  0  0  0  0
  5 10  1  0  0  0  0
  5  6  2  0  0  0  0
  6  7  1  0  0  0  0
  7  8  2  0  0  0  0
  8  9  1  0  0  0  0
  9 10  2  0  0  0  0
 10 11  1  0  0  0  0
 11 12  1  0  0  0  0
 12 13  1  0  0  0  0
 13 14  1  0  0  0  0
 14 29  1  0  0  0  0
 14 15  1  0  0  0  0
 15 16  1  0  0  0  0
 16 17  1  0  0  0  0
 17 18  1  0  0  0  0
 17 28  1  0  0  0  0
 18 27  1  0  0  0  0
 18 19  2  0  0  0  0
 19 20  1  0  0  0  0
 20 21  2  0  0  0  0
 21 22  1  0  0  0  0
 22 23  1  0  0  0  0
 22 27  2  0  0  0  0
 23 24  1  0  0  0  0
 23 25  1  0  0  0  0
 23 26  1  0  0  0  0
 28 29  1  0  0  0  0
M  END
$$$$

 OpenBabel10082008492D

 10  9  0  0  0  0  0  0  0  0999 V2000
    6.9282   -1.0000    0.0000 N   0  0  0  0  0  0  0  0  0  0  0  0
    6.9282   -0.0000    0.0000 C   0  0  0  0  0  0  0  0  0  0  0  0
    6.0622    0.5000    0.0000 C   0  0  0  0  0  0  0  0  0  0  0  0
    5.1962   -0.0000    0.0000 N   0  0  0  0  0  0  0  0  0  0  0  0
    4.3301    0.5000    0.0000 C   0  0  0  0  0  0  0  0  0  0  0  0
    3.4641   -0.0000    0.0000 C   0  0  0  0  0  0  0  0  0  0  0  0
    2.5981    0.5000    0.0000 N   0  0  0  0  0  0  0  0  0  0  0  0
    1.7321   -0.0000    0.0000 C   0  0  0  0  0  0  0  0  0  0  0  0
    0.8660    0.5000    0.0000 C   0  0  0  0  0  0  0  0  0  0  0  0
    0.0000    0.0000    0.0000 N   0  0  0  0  0  0  0  0  0  0  0  0
  1  2  1  0  0  0  0
  2  3  1  0  0  0  0
  3  4  1  0  0  0  0
  4  5  1  0  0  0  0
  5  6  1  0  0  0  0
  6  7  1  0  0  0  0
  7  8  1  0  0  0  0
  8  9  1  0  0  0  0
  9 10  1  0  0  0  0
M  END
$$$$

 OpenBabel10082008492D

 15 15  0  0  1  0  0  0  0  0999 V2000
    3.4641    0.0000    0.0000 C   0  0  0  0  0  0  0  0  0  0  0  0
    2.5981   -0.5000    0.0000 C   0  0  0  0  0  0  0  0  0  0  0  0
    2.5981   -1.5000    0.0000 N   0  0  0  0  0  0  0  0  0  0  0  0
    3.4641   -2.0000    0.0000 C   0  0  0  0  0  0  0  0  0  0  0  0
    3.4641   -3.0000    0.0000 C   0  0  0  0  0  0  0  0  0  0  0  0
    1.7321   -2.0000    0.0000 C   0  0  3  0  0  0  0  0  0  0  0  0
    1.7321   -3.0000    0.0000 C   0  0  0  0  0  0  0  0  0  0  0  0
    0.8660   -1.5000    0.0000 C   0  0  0  0  0  0  0  0  0  0  0  0
    0.0000   -2.0000    0.0000 O   0  0  0  0  0  0  0  0  0  0  0  0
    0.8660   -0.5000    0.0000 C   0  0  0  0  0  0  0  0  0  0  0  0
    1.7321   -0.0000    0.0000 C   0  0  0  0  0  0  0  0  0  0  0  0
    1.7321    1.0000    0.0000 C   0  0  0  0  0  0  0  0  0  0  0  0
    0.8660    1.5000    0.0000 C   0  0  0  0  0  0  0  0  0  0  0  0
    0.0000    1.0000    0.0000 C   0  0  0  0  0  0  0  0  0  0  0  0
    0.0000   -0.0000    0.0000 C   0  0  0  0  0  0  0  0  0  0  0  0
  1  2  1  0  0  0  0
  2  3  1  0  0  0  0
  3  4  1  0  0  0  0
  3  6  1  0  0  0  0
  4  5  1  0  0  0  0
  6  7  1  0  0  0  0
  6  8  1  0  0  0  0
  8  9  2  0  0  0  0
  8 10  1  0  0  0  0
 10 15  1  0  0  0  0
 10 11  2  0  0  0  0
 11 12  1  0  0  0  0
 12 13  2  0  0  0  0
 13 14  1  0  0  0  0
 14 15  2  0  0  0  0
M  END
$$$$

 OpenBabel10082008492D

 11 10  0  0  1  0  0  0  0  0999 V2000
    0.1340   -2.5000    0.0000 C   0  0  0  0  0  0  0  0  0  0  0  0
    0.1340   -1.5000    0.0000 C   0  0  3  0  0  0  0  0  0  0  0  0
    1.0000   -1.0000    0.0000 C   0  0  0  0  0  0  0  0  0  0  0  0
    1.0000    0.0000    0.0000 N   0  3  0  0  0  0  0  0  0  0  0  0
    2.0000    0.0000    0.0000 C   0  0  0  0  0  0  0  0  0  0  0  0
    1.0000    1.0000    0.0000 C   0  0  0  0  0  0  0  0  0  0  0  0
    0.0000    0.0000    0.0000 C   0  0  0  0  0  0  0  0  0  0  0  0
   -0.7321   -1.0000    0.0000 O   0  0  0  0  0  0  0  0  0  0  0  0
   -1.5981   -1.5000    0.0000 C   0  0  0  0  0  0  0  0  0  0  0  0
   -2.4641   -1.0000    0.0000 N   0  0  0  0  0  0  0  0  0  0  0  0
   -1.5981   -2.5000    0.0000 O   0  0  0  0  0  0  0  0  0  0  0  0
  1  2  1  0  0  0  0
  2  3  1  0  0  0  0
  2  8  1  0  0  0  0
  3  4  1  0  0  0  0
  4  5  1  0  0  0  0
  4  6  1  0  0  0  0
  4  7  1  0  0  0  0
  8  9  1  0  0  0  0
  9 10  1  0  0  0  0
  9 11  2  0  0  0  0
M  CHG  1   4   1
M  END
$$$$

 OpenBabel10082008492D

 19 19  0  0  1  0  0  0  0  0999 V2000
    3.4641    1.0000    0.0000 C   0  0  0  0  0  0  0  0  0  0  0  0
    2.5981    1.5000    0.0000 C   0  0  0  0  0  0  0  0  0  0  0  0
    1.7321    1.0000    0.0000 C   0  0  0  0  0  0  0  0  0  0  0  0
    1.7321    0.0000    0.0000 O   0  0  0  0  0  0  0  0  0  0  0  0
    0.8660   -0.5000    0.0000 C   0  0  0  0  0  0  0  0  0  0  0  0
    0.8660   -1.5000    0.0000 C   0  0  0  0  0  0  0  0  0  0  0  0
    0.0000   -2.0000    0.0000 C   0  0  0  0  0  0  0  0  0  0  0  0
   -0.8660   -1.5000    0.0000 C   0  0  0  0  0  0  0  0  0  0  0  0
   -0.8660   -0.5000    0.0000 C   0  0  0  0  0  0  0  0  0  0  0  0
   -0.0000   -0.0000    0.0000 C   0  0  0  0  0  0  0  0  0  0  0  0
   -0.0000    1.0000    0.0000 O   0  0  0  0  0  0  0  0  0  0  0  0
   -0.8660    1.5000    0.0000 C   0  0  0  0  0  0  0  0  0  0  0  0
   -1.7321    1.0000    0.0000 C   0  0  3  0  0  0  0  0  0  0  0  0
   -2.5981    1.5000    0.0000 O   0  0  0  0  0  0  0  0  0  0  0  0
   -1.7321   -0.0000    0.0000 C   0  0  0  0  0  0  0  0  0  0  0  0
   -2.5981   -0.5000    0.0000 N   0  0  0  0  0  0  0  0  0  0  0  0
   -2.5981   -1.5000    0.0000 C   0  0  0  0  0  0  0  0  0  0  0  0
   -3.4641   -2.0000    0.0000 C   0  0  0  0  0  0  0  0  0  0  0  0
   -1.7321   -2.0000    0.0000 C   0  0  0  0  0  0  0  0  0  0  0  0
  1  2  2  0  0  0  0
  2  3  1  0  0  0  0
  3  4  1  0  0  0  0
  4  5  1  0  0  0  0
  5 10  1  0  0  0  0
  5  6  2  0  0  0  0
  6  7  1  0  0  0  0
  7  8  2  0  0  0  0
  8  9  1  0  0  0  0
  9 10  2  0  0  0  0
 10 11  1  0  0  0  0
 11 12  1  0  0  0  0
 12 13  1  0  0  0  0
 13 14  1  0  0  0  0
 13 15  1  0  0  0  0
 15 16  1  0  0  0  0
 16 17  1  0  0  0  0
 17 18  1  0  0  0  0
 17 19  1  0  0  0  0
M  END
$$$$

 OpenBabel10082008492D

 16 16  0  0  0  0  0  0  0  0999 V2000
   -0.8660   -3.5000    0.0000 C   0  0  0  0  0  0  0  0  0  0  0  0
   -0.0000   -3.0000    0.0000 N   0  0  0  0  0  0  0  0  0  0  0  0
   -0.0000   -2.0000    0.0000 N   0  0  0  0  0  0  0  0  0  0  0  0
   -0.8660   -1.5000    0.0000 C   0  0  0  0  0  0  0  0  0  0  0  0
   -0.8660   -0.5000    0.0000 C   0  0  0  0  0  0  0  0  0  0  0  0
   -1.7321   -0.0000    0.0000 C   0  0  0  0  0  0  0  0  0  0  0  0
   -1.7321    1.0000    0.0000 C   0  0  0  0  0  0  0  0  0  0  0  0
   -0.8660    1.5000    0.0000 C   0  0  0  0  0  0  0  0  0  0  0  0
   -0.8660    2.5000    0.0000 C   0  0  0  0  0  0  0  0  0  0  0  0
   -0.0000    3.0000    0.0000 O   0  0  0  0  0  0  0  0  0  0  0  0
   -1.7321    3.0000    0.0000 N   0  0  0  0  0  0  0  0  0  0  0  0
   -1.7321    4.0000    0.0000 C   0  0  0  0  0  0  0  0  0  0  0  0
   -0.8660    4.5000    0.0000 C   0  0  0  0  0  0  0  0  0  0  0  0
   -2.5981    4.5000    0.0000 C   0  0  0  0  0  0  0  0  0  0  0  0
   -0.0000    1.0000    0.0000 C   0  0  0  0  0  0  0  0  0  0  0  0
    0.0000    0.0000    0.0000 C   0  0  0  0  0  0  0  0  0  0  0  0
  1  2  1  0  0  0  0
  2  3  1  0  0  0  0
  3  4  1  0  0  0  0
  4  5  1  0  0  0  0
  5 16  1  0  0  0  0
  5  6  2  0  0  0  0
  6  7  1  0  0  0  0
  7  8  2  0  0  0  0
  8  9  1  0  0  0  0
  8 15  1  0  0  0  0
  9 10  2  0  0  0  0
  9 11  1  0  0  0  0
 11 12  1  0  0  0  0
 12 13  1  0  0  0  0
 12 14  1  0  0  0  0
 15 16  2  0  0  0  0
M  END
$$$$

 OpenBabel10082008492D

 23 24  0  0  1  0  0  0  0  0999 V2000
   -2.5981   -2.5000    0.0000 C   0  0  0  0  0  0  0  0  0  0  0  0
   -2.5981   -1.5000    0.0000 C   0  0  2  0  0  0  0  0  0  0  0  0
   -1.5981   -1.5000    0.0000 H   0  0  0  0  0  0  0  0  0  0  0  0
   -2.5981   -0.5000    0.0000 N   0  0  0  0  0  0  0  0  0  0  0  0
   -1.7321   -0.0000    0.0000 C   0  0  0  0  0  0  0  0  0  0  0  0
   -0.8660   -0.5000    0.0000 C   0  0  0  0  0  0  0  0  0  0  0  0
   -0.8660   -1.5000    0.0000 C   0  0  0  0  0  0  0  0  0  0  0  0
    0.0000   -2.0000    0.0000 C   0  0  0  0  0  0  0  0  0  0  0  0
    0.8660   -1.5000    0.0000 C   0  0  0  0  0  0  0  0  0  0  0  0
    1.7321   -2.0000    0.0000 O   0  0  0  0  0  0  0  0  0  0  0  0
    2.5981   -1.5000    0.0000 C   0  0  0  0  0  0  0  0  0  0  0  0
    3.4641   -2.0000    0.0000 C   0  0  0  0  0  0  0  0  0  0  0  0
    3.4641   -3.0000    0.0000 C   0  0  0  0  0  0  0  0  0  0  0  0
    4.3301   -3.5000    0.0000 C   0  0  0  0  0  0  0  0  0  0  0  0
    5.1962   -3.0000    0.0000 C   0  0  0  0  0  0  0  0  0  0  0  0
    5.1962   -2.0000    0.0000 C   0  0  0  0  0  0  0  0  0  0  0  0
    6.0622   -1.5000    0.0000 F   0  0  0  0  0  0  0  0  0  0  0  0
    4.3301   -1.5000    0.0000 C   0  0  0  0  0  0  0  0  0  0  0  0
    0.8660   -0.5000    0.0000 C   0  0  0  0  0  0  0  0  0  0  0  0
   -0.0000   -0.0000    0.0000 C   0  0  0  0  0  0  0  0  0  0  0  0
   -3.5981   -1.5000    0.0000 C   0  0  0  0  0  0  0  0  0  0  0  0
   -4.0981   -0.6340    0.0000 N   0  0  0  0  0  0  0  0  0  0  0  0
   -4.0981   -2.3660    0.0000 O   0  0  0  0  0  0  0  0  0  0  0  0
  1  2  1  0  0  0  0
  2  3  1  6  0  0  0
  2  4  1  0  0  0  0
  2 21  1  0  0  0  0
  4  5  1  0  0  0  0
  5  6  1  0  0  0  0
  6 20  1  0  0  0  0
  6  7  2  0  0  0  0
  7  8  1  0  0  0  0
  8  9  2  0  0  0  0
  9 10  1  0  0  0  0
  9 19  1  0  0  0  0
 10 11  1  0  0  0  0
 11 12  1  0  0  0  0
 12 18  1  0  0  0  0
 12 13  2  0  0  0  0
 13 14  1  0  0  0  0
 14 15  2  0  0  0  0
 15 16  1  0  0  0  0
 16 17  1  0  0  0  0
 16 18  2  0  0  0  0
 19 20  2  0  0  0  0
 21 22  1  0  0  0  0
 21 23  2  0  0  0  0
M  END
$$$$

 OpenBabel10082008492D

 60 65  0  0  1  0  0  0  0  0999 V2000
    2.6754    6.4077    0.0000 C   0  0  0  0  0  0  0  0  0  0  0  0
    1.7757    6.0071    0.0000 O   0  0  0  0  0  0  0  0  0  0  0  0
    1.6727    5.0277    0.0000 C   0  0  0  0  0  0  0  0  0  0  0  0
    2.4695    4.4488    0.0000 O   0  0  0  0  0  0  0  0  0  0  0  0
    0.7730    4.6271    0.0000 N   0  0  0  0  0  0  0  0  0  0  0  0
    0.6701    3.6476    0.0000 C   0  0  2  0  0  0  0  0  0  0  0  0
    1.6495    3.5447    0.0000 H   0  0  0  0  0  0  0  0  0  0  0  0
    0.5671    2.6682    0.0000 C   0  0  0  0  0  0  0  0  0  0  0  0
   -0.3326    2.2676    0.0000 O   0  0  0  0  0  0  0  0  0  0  0  0
    1.3639    2.0893    0.0000 N   0  0  0  0  0  0  0  0  0  0  0  0
    2.3005    2.3936    0.0000 C   0  0  0  0  0  0  0  0  0  0  0  0
    2.8794    1.5969    0.0000 C   0  0  0  0  0  0  0  0  0  0  0  0
    2.3005    0.8001    0.0000 C   0  0  0  0  0  0  0  0  0  0  0  0
    1.3639    1.1045    0.0000 C   0  0  1  0  0  0  0  0  0  0  0  0
    0.3844    1.0015    0.0000 H   0  0  0  0  0  0  0  0  0  0  0  0
    0.9633    0.2048    0.0000 C   0  0  0  0  0  0  0  0  0  0  0  0
    1.4558   -0.6481    0.0000 N   0  0  0  0  0  0  0  0  0  0  0  0
    0.7968   -1.3800    0.0000 C   0  0  0  0  0  0  0  0  0  0  0  0
   -0.1029   -0.9795    0.0000 C   0  0  0  0  0  0  0  0  0  0  0  0
   -0.9558   -1.4719    0.0000 C   0  0  0  0  0  0  0  0  0  0  0  0
   -0.9558   -2.4567    0.0000 C   0  0  0  0  0  0  0  0  0  0  0  0
   -1.8088   -2.9492    0.0000 C   0  0  0  0  0  0  0  0  0  0  0  0
   -2.6617   -2.4567    0.0000 C   0  0  0  0  0  0  0  0  0  0  0  0
   -3.5146   -2.9492    0.0000 C   0  0  0  0  0  0  0  0  0  0  0  0
   -3.5146   -3.9340    0.0000 C   0  0  0  0  0  0  0  0  0  0  0  0
   -4.3675   -4.4264    0.0000 C   0  0  0  0  0  0  0  0  0  0  0  0
   -5.2204   -3.9340    0.0000 C   0  0  0  0  0  0  0  0  0  0  0  0
   -6.0733   -4.4264    0.0000 C   0  0  0  0  0  0  0  0  0  0  0  0
   -6.1762   -5.4059    0.0000 C   0  0  0  0  0  0  0  0  0  0  0  0
   -7.1395   -5.6106    0.0000 N   0  0  0  0  0  0  0  0  0  0  0  0
   -7.6320   -4.7577    0.0000 C   0  0  0  0  0  0  0  0  0  0  0  0
   -9.5909   -4.5518    0.0000 C   0  0  2  0  0  0  0  0  0  0  0  0
   -9.6848   -3.5715    0.0000 H   0  0  0  0  0  0  0  0  0  0  0  0
  -10.5422   -4.2969    0.0000 C   0  0  0  0  0  0  0  0  0  0  0  0
  -11.0786   -5.1229    0.0000 C   0  0  0  0  0  0  0  0  0  0  0  0
  -10.4588   -5.8883    0.0000 C   0  0  0  0  0  0  0  0  0  0  0  0
   -9.5393   -5.5353    0.0000 N   0  0  0  0  0  0  0  0  0  0  0  0
   -8.7134   -6.0717    0.0000 C   0  0  0  0  0  0  0  0  0  0  0  0
   -7.8359   -5.6246    0.0000 O   0  0  0  0  0  0  0  0  0  0  0  0
   -8.7649   -7.0552    0.0000 C   0  0  1  0  0  0  0  0  0  0  0  0
   -9.7484   -7.0037    0.0000 H   0  0  0  0  0  0  0  0  0  0  0  0
   -8.8165   -8.0387    0.0000 N   0  0  0  0  0  0  0  0  0  0  0  0
   -9.6940   -8.4858    0.0000 C   0  0  0  0  0  0  0  0  0  0  0  0
  -10.5199   -7.9495    0.0000 O   0  0  0  0  0  0  0  0  0  0  0  0
   -9.7455   -9.4693    0.0000 O   0  0  0  0  0  0  0  0  0  0  0  0
  -10.6230   -9.9165    0.0000 C   0  0  0  0  0  0  0  0  0  0  0  0
   -7.7814   -7.1068    0.0000 C   0  0  0  0  0  0  0  0  0  0  0  0
   -7.3343   -7.9843    0.0000 C   0  0  0  0  0  0  0  0  0  0  0  0
   -7.2450   -6.2808    0.0000 C   0  0  0  0  0  0  0  0  0  0  0  0
   -6.9730   -4.0258    0.0000 N   0  0  0  0  0  0  0  0  0  0  0  0
   -7.1777   -3.0625    0.0000 H   0  0  0  0  0  0  0  0  0  0  0  0
   -5.2204   -2.9492    0.0000 C   0  0  0  0  0  0  0  0  0  0  0  0
   -4.3675   -2.4567    0.0000 C   0  0  0  0  0  0  0  0  0  0  0  0
   -2.6617   -1.4719    0.0000 C   0  0  0  0  0  0  0  0  0  0  0  0
   -1.8088   -0.9795    0.0000 C   0  0  0  0  0  0  0  0  0  0  0  0
    0.0000   -0.0000    0.0000 N   0  0  0  0  0  0  0  0  0  0  0  0
   -0.7319    0.6590    0.0000 H   0  0  0  0  0  0  0  0  0  0  0  0
   -0.3094    3.7506    0.0000 C   0  0  0  0  0  0  0  0  0  0  0  0
   -0.8882    2.9538    0.0000 C   0  0  0  0  0  0  0  0  0  0  0  0
   -0.7099    4.6503    0.0000 C   0  0  0  0  0  0  0  0  0  0  0  0
  1  2  1  0  0  0  0
  2  3  1  0  0  0  0
  3  4  2  0  0  0  0
  3  5  1  0  0  0  0
  5  6  1  0  0  0  0
  6  7  1  1  0  0  0
  6  8  1  0  0  0  0
  6 58  1  0  0  0  0
  8  9  2  0  0  0  0
  8 10  1  0  0  0  0
 10 14  1  0  0  0  0
 10 11  1  0  0  0  0
 11 12  1  0  0  0  0
 12 13  1  0  0  0  0
 13 14  1  0  0  0  0
 14 15  1  6  0  0  0
 14 16  1  0  0  0  0
 16 56  1  0  0  0  0
 16 17  2  0  0  0  0
 17 18  1  0  0  0  0
 18 19  2  0  0  0  0
 19 20  1  0  0  0  0
 19 56  1  0  0  0  0
 20 55  1  0  0  0  0
 20 21  2  0  0  0  0
 21 22  1  0  0  0  0
 22 23  2  0  0  0  0
 23 24  1  0  0  0  0
 23 54  1  0  0  0  0
 24 53  1  0  0  0  0
 24 25  2  0  0  0  0
 25 26  1  0  0  0  0
 26 27  2  0  0  0  0
 27 28  1  0  0  0  0
 27 52  1  0  0  0  0
 28 50  1  0  0  0  0
 28 29  2  0  0  0  0
 29 30  1  0  0  0  0
 30 31  2  0  0  0  0
 31 32  1  0  0  0  0
 31 50  1  0  0  0  0
 32 33  1  6  0  0  0
 32 37  1  0  0  0  0
 32 34  1  0  0  0  0
 34 35  1  0  0  0  0
 35 36  1  0  0  0  0
 36 37  1  0  0  0  0
 37 38  1  0  0  0  0
 38 39  2  0  0  0  0
 38 40  1  0  0  0  0
 40 41  1  1  0  0  0
 40 42  1  0  0  0  0
 40 47  1  0  0  0  0
 42 43  1  0  0  0  0
 43 44  2  0  0  0  0
 43 45  1  0  0  0  0
 45 46  1  0  0  0  0
 47 48  1  0  0  0  0
 47 49  1  0  0  0  0
 50 51  1  0  0  0  0
 52 53  2  0  0  0  0
 54 55  2  0  0  0  0
 56 57  1  0  0  0  0
 58 59  1  0  0  0  0
 58 60  1  0  0  0  0
M  END
$$$$

 OpenBabel10082008492D

 22 23  0  0  0  0  0  0  0  0999 V2000
   -4.8805   -3.1309    0.0000 C   0  0  0  0  0  0  0  0  0  0  0  0
   -4.0871   -3.7397    0.0000 C   0  0  0  0  0  0  0  0  0  0  0  0
   -3.1632   -3.3570    0.0000 N   0  0  0  0  0  0  0  0  0  0  0  0
   -2.3699   -3.9658    0.0000 C   0  0  0  0  0  0  0  0  0  0  0  0
   -1.4460   -3.5831    0.0000 C   0  0  0  0  0  0  0  0  0  0  0  0
   -3.0327   -2.3656    0.0000 C   0  0  0  0  0  0  0  0  0  0  0  0
   -2.1088   -1.9829    0.0000 C   0  0  0  0  0  0  0  0  0  0  0  0
   -1.9783   -0.9914    0.0000 O   0  0  0  0  0  0  0  0  0  0  0  0
   -1.0544   -0.6088    0.0000 C   0  0  0  0  0  0  0  0  0  0  0  0
   -0.2611   -1.2175    0.0000 O   0  0  0  0  0  0  0  0  0  0  0  0
   -0.9239    0.3827    0.0000 C   0  0  0  0  0  0  0  0  0  0  0  0
   -1.7899    0.8827    0.0000 C   0  0  0  0  0  0  0  0  0  0  0  0
   -2.6559    0.3827    0.0000 C   0  0  0  0  0  0  0  0  0  0  0  0
   -3.5220    0.8827    0.0000 C   0  0  0  0  0  0  0  0  0  0  0  0
   -3.5220    1.8827    0.0000 C   0  0  0  0  0  0  0  0  0  0  0  0
   -2.6559    2.3827    0.0000 C   0  0  0  0  0  0  0  0  0  0  0  0
   -1.7899    1.8827    0.0000 C   0  0  0  0  0  0  0  0  0  0  0  0
   -1.0544    1.3741    0.0000 C   0  0  0  0  0  0  0  0  0  0  0  0
   -0.2611    1.9829    0.0000 C   0  0  0  0  0  0  0  0  0  0  0  0
    0.6628    1.6002    0.0000 C   0  0  0  0  0  0  0  0  0  0  0  0
    0.7934    0.6088    0.0000 C   0  0  0  0  0  0  0  0  0  0  0  0
    0.0000   -0.0000    0.0000 C   0  0  0  0  0  0  0  0  0  0  0  0
  1  2  1  0  0  0  0
  2  3  1  0  0  0  0
  3  4  1  0  0  0  0
  3  6  1  0  0  0  0
  4  5  1  0  0  0  0
  6  7  1  0  0  0  0
  7  8  1  0  0  0  0
  8  9  1  0  0  0  0
  9 10  2  0  0  0  0
  9 11  1  0  0  0  0
 11 22  1  0  0  0  0
 11 12  1  0  0  0  0
 11 18  1  0  0  0  0
 12 17  1  0  0  0  0
 12 13  1  0  0  0  0
 13 14  1  0  0  0  0
 14 15  1  0  0  0  0
 15 16  1  0  0  0  0
 16 17  1  0  0  0  0
 18 19  1  0  0  0  0
 19 20  1  0  0  0  0
 20 21  1  0  0  0  0
 21 22  1  0  0  0  0
M  END
$$$$

 OpenBabel10082008492D

 15 16  0  0  1  0  0  0  0  0999 V2000
    2.1984    2.9485    0.0000 N   0  0  0  0  0  0  0  0  0  0  0  0
    1.2038    2.8440    0.0000 C   0  0  0  0  0  0  0  0  0  0  0  0
    0.6161    3.6530    0.0000 N   0  0  0  0  0  0  0  0  0  0  0  0
    0.7971    1.9305    0.0000 N   0  0  0  0  0  0  0  0  0  0  0  0
    1.3849    1.1215    0.0000 C   0  0  0  0  0  0  0  0  0  0  0  0
    0.9781    0.2079    0.0000 C   0  0  3  0  0  0  0  0  0  0  0  0
    1.4781   -0.6581    0.0000 C   0  0  0  0  0  0  0  0  0  0  0  0
    0.8090   -1.4013    0.0000 O   0  0  0  0  0  0  0  0  0  0  0  0
   -0.1045   -0.9945    0.0000 C   0  0  0  0  0  0  0  0  0  0  0  0
   -0.1045   -1.9945    0.0000 C   0  0  0  0  0  0  0  0  0  0  0  0
   -0.9706   -2.4945    0.0000 C   0  0  0  0  0  0  0  0  0  0  0  0
   -1.8366   -1.9945    0.0000 C   0  0  0  0  0  0  0  0  0  0  0  0
   -1.8366   -0.9945    0.0000 C   0  0  0  0  0  0  0  0  0  0  0  0
   -0.9706   -0.4945    0.0000 C   0  0  0  0  0  0  0  0  0  0  0  0
    0.0000   -0.0000    0.0000 O   0  0  0  0  0  0  0  0  0  0  0  0
  1  2  2  0  0  0  0
  2  3  1  0  0  0  0
  2  4  1  0  0  0  0
  4  5  1  0  0  0  0
  5  6  1  0  0  0  0
  6 15  1  0  0  0  0
  6  7  1  0  0  0  0
  7  8  1  0  0  0  0
  8  9  1  0  0  0  0
  9 14  1  0  0  0  0
  9 10  1  0  0  0  0
  9 15  1  0  0  0  0
 10 11  1  0  0  0  0
 11 12  1  0  0  0  0
 12 13  1  0  0  0  0
 13 14  1  0  0  0  0
M  END
$$$$

 OpenBabel10082008492D

  9  8  0  0  1  0  0  0  0  0999 V2000
    3.4641   -0.0000    0.0000 C   0  0  0  0  0  0  0  0  0  0  0  0
    3.4641    1.0000    0.0000 C   0  0  0  0  0  0  0  0  0  0  0  0
    2.5981    1.5000    0.0000 C   0  0  3  0  0  0  0  0  0  0  0  0
    2.5981    2.5000    0.0000 N   0  0  0  0  0  0  0  0  0  0  0  0
    1.7321    1.0000    0.0000 C   0  0  0  0  0  0  0  0  0  0  0  0
    0.8660    1.5000    0.0000 C   0  0  0  0  0  0  0  0  0  0  0  0
    0.0000    1.0000    0.0000 C   0  0  0  0  0  0  0  0  0  0  0  0
   -0.8660    1.5000    0.0000 O   0  0  0  0  0  0  0  0  0  0  0  0
   -0.0000   -0.0000    0.0000 O   0  0  0  0  0  0  0  0  0  0  0  0
  1  2  2  0  0  0  0
  2  3  1  0  0  0  0
  3  4  1  0  0  0  0
  3  5  1  0  0  0  0
  5  6  1  0  0  0  0
  6  7  1  0  0  0  0
  7  8  2  0  0  0  0
  7  9  1  0  0  0  0
M  END
$$$$

 OpenBabel10082008492D

 15 15  0  0  0  0  0  0  0  0999 V2000
   -1.7321   -2.0000    0.0000 C   0  0  0  0  0  0  0  0  0  0  0  0
   -0.8660   -1.5000    0.0000 N   0  0  0  0  0  0  0  0  0  0  0  0
   -0.0000   -2.0000    0.0000 C   0  0  0  0  0  0  0  0  0  0  0  0
   -0.8660   -0.5000    0.0000 C   0  0  0  0  0  0  0  0  0  0  0  0
   -1.7321   -0.0000    0.0000 N   0  0  0  0  0  0  0  0  0  0  0  0
   -1.7321    1.0000    0.0000 C   0  0  0  0  0  0  0  0  0  0  0  0
   -2.5981    1.5000    0.0000 N   0  0  0  0  0  0  0  0  0  0  0  0
   -2.5981    2.5000    0.0000 C   0  0  0  0  0  0  0  0  0  0  0  0
   -3.4641    1.0000    0.0000 C   0  0  0  0  0  0  0  0  0  0  0  0
   -0.8660    1.5000    0.0000 N   0  0  0  0  0  0  0  0  0  0  0  0
   -0.0000    1.0000    0.0000 C   0  0  0  0  0  0  0  0  0  0  0  0
    0.8660    1.5000    0.0000 N   0  0  0  0  0  0  0  0  0  0  0  0
    1.7321    1.0000    0.0000 C   0  0  0  0  0  0  0  0  0  0  0  0
    0.8660    2.5000    0.0000 C   0  0  0  0  0  0  0  0  0  0  0  0
    0.0000    0.0000    0.0000 N   0  0  0  0  0  0  0  0  0  0  0  0
  1  2  1  0  0  0  0
  2  3  1  0  0  0  0
  2  4  1  0  0  0  0
  4 15  1  0  0  0  0
  4  5  2  0  0  0  0
  5  6  1  0  0  0  0
  6  7  1  0  0  0  0
  6 10  2  0  0  0  0
  7  8  1  0  0  0  0
  7  9  1  0  0  0  0
 10 11  1  0  0  0  0
 11 12  1  0  0  0  0
 11 15  2  0  0  0  0
 12 13  1  0  0  0  0
 12 14  1  0  0  0  0
M  END
$$$$

 OpenBabel10082008492D

 40 44  0  0  0  0  0  0  0  0999 V2000
   -4.0508   -7.0067    0.0000 C   0  0  0  0  0  0  0  0  0  0  0  0
   -3.7418   -6.0556    0.0000 O   0  0  0  0  0  0  0  0  0  0  0  0
   -2.7636   -5.8477    0.0000 C   0  0  0  0  0  0  0  0  0  0  0  0
   -2.0945   -6.5908    0.0000 O   0  0  0  0  0  0  0  0  0  0  0  0
   -2.4546   -4.8966    0.0000 C   0  0  0  0  0  0  0  0  0  0  0  0
   -1.4765   -4.6887    0.0000 C   0  0  0  0  0  0  0  0  0  0  0  0
   -1.1674   -3.7377    0.0000 C   0  0  0  0  0  0  0  0  0  0  0  0
   -1.8366   -2.9945    0.0000 C   0  0  0  0  0  0  0  0  0  0  0  0
   -2.8147   -3.2024    0.0000 C   0  0  0  0  0  0  0  0  0  0  0  0
   -3.1237   -4.1535    0.0000 C   0  0  0  0  0  0  0  0  0  0  0  0
   -3.3147   -2.3364    0.0000 N   0  0  0  0  0  0  0  0  0  0  0  0
   -2.6456   -1.5933    0.0000 C   0  0  0  0  0  0  0  0  0  0  0  0
   -2.8535   -0.6151    0.0000 O   0  0  0  0  0  0  0  0  0  0  0  0
   -1.7321   -2.0000    0.0000 C   0  0  0  0  0  0  0  0  0  0  0  0
   -0.8660   -1.5000    0.0000 C   0  0  0  0  0  0  0  0  0  0  0  0
   -0.8660   -0.5000    0.0000 N   0  0  0  0  0  0  0  0  0  0  0  0
   -0.0000   -0.0000    0.0000 C   0  0  0  0  0  0  0  0  0  0  0  0
   -0.0000    1.0000    0.0000 C   0  0  0  0  0  0  0  0  0  0  0  0
    0.8660    1.5000    0.0000 C   0  0  0  0  0  0  0  0  0  0  0  0
    1.7321    1.0000    0.0000 C   0  0  0  0  0  0  0  0  0  0  0  0
    2.5981    1.5000    0.0000 N   0  0  0  0  0  0  0  0  0  0  0  0
    3.4641    1.0000    0.0000 C   0  0  0  0  0  0  0  0  0  0  0  0
    2.5981    2.5000    0.0000 C   0  0  0  0  0  0  0  0  0  0  0  0
    3.4641    3.0000    0.0000 O   0  0  0  0  0  0  0  0  0  0  0  0
    1.7321    3.0000    0.0000 C   0  0  0  0  0  0  0  0  0  0  0  0
    1.7321    4.0000    0.0000 N   0  0  0  0  0  0  0  0  0  0  0  0
    0.8660    4.5000    0.0000 C   0  0  0  0  0  0  0  0  0  0  0  0
    0.8660    5.5000    0.0000 C   0  0  0  0  0  0  0  0  0  0  0  0
    1.7321    6.0000    0.0000 N   0  0  0  0  0  0  0  0  0  0  0  0
    1.7321    7.0000    0.0000 C   0  0  0  0  0  0  0  0  0  0  0  0
    2.5981    5.5000    0.0000 C   0  0  0  0  0  0  0  0  0  0  0  0
    2.5981    4.5000    0.0000 C   0  0  0  0  0  0  0  0  0  0  0  0
    1.7321    0.0000    0.0000 C   0  0  0  0  0  0  0  0  0  0  0  0
    0.8660   -0.5000    0.0000 C   0  0  0  0  0  0  0  0  0  0  0  0
   -0.0000   -2.0000    0.0000 C   0  0  0  0  0  0  0  0  0  0  0  0
   -0.0000   -3.0000    0.0000 C   0  0  0  0  0  0  0  0  0  0  0  0
    0.8660   -3.5000    0.0000 C   0  0  0  0  0  0  0  0  0  0  0  0
    1.7321   -3.0000    0.0000 C   0  0  0  0  0  0  0  0  0  0  0  0
    1.7321   -2.0000    0.0000 C   0  0  0  0  0  0  0  0  0  0  0  0
    0.8660   -1.5000    0.0000 C   0  0  0  0  0  0  0  0  0  0  0  0
  1  2  1  0  0  0  0
  2  3  1  0  0  0  0
  3  4  2  0  0  0  0
  3  5  1  0  0  0  0
  5 10  1  0  0  0  0
  5  6  2  0  0  0  0
  6  7  1  0  0  0  0
  7  8  2  0  0  0  0
  8 14  1  0  0  0  0
  8  9  1  0  0  0  0
  9 10  2  0  0  0  0
  9 11  1  0  0  0  0
 11 12  1  0  0  0  0
 12 13  2  0  0  0  0
 12 14  1  0  0  0  0
 14 15  2  0  0  0  0
 15 16  1  0  0  0  0
 15 35  1  0  0  0  0
 16 17  1  0  0  0  0
 17 34  1  0  0  0  0
 17 18  2  0  0  0  0
 18 19  1  0  0  0  0
 19 20  2  0  0  0  0
 20 21  1  0  0  0  0
 20 33  1  0  0  0  0
 21 22  1  0  0  0  0
 21 23  1  0  0  0  0
 23 24  2  0  0  0  0
 23 25  1  0  0  0  0
 25 26  1  0  0  0  0
 26 32  1  0  0  0  0
 26 27  1  0  0  0  0
 27 28  1  0  0  0  0
 28 29  1  0  0  0  0
 29 30  1  0  0  0  0
 29 31  1  0  0  0  0
 31 32  1  0  0  0  0
 33 34  2  0  0  0  0
 35 40  1  0  0  0  0
 35 36  2  0  0  0  0
 36 37  1  0  0  0  0
 37 38  2  0  0  0  0
 38 39  1  0  0  0  0
 39 40  2  0  0  0  0
M  END
$$$$

 OpenBabel10082008492D

 21 22  0  0  0  0  0  0  0  0999 V2000
    0.8660   -2.5000    0.0000 C   0  0  0  0  0  0  0  0  0  0  0  0
    0.8660   -1.5000    0.0000 O   0  0  0  0  0  0  0  0  0  0  0  0
   -0.0000   -1.0000    0.0000 C   0  0  0  0  0  0  0  0  0  0  0  0
   -0.8660   -1.5000    0.0000 C   0  0  0  0  0  0  0  0  0  0  0  0
   -1.7321   -1.0000    0.0000 C   0  0  0  0  0  0  0  0  0  0  0  0
   -2.5981   -1.5000    0.0000 C   0  0  0  0  0  0  0  0  0  0  0  0
   -3.4641   -1.0000    0.0000 C   0  0  0  0  0  0  0  0  0  0  0  0
   -4.3301   -1.5000    0.0000 C   0  0  0  0  0  0  0  0  0  0  0  0
   -5.1962   -1.0000    0.0000 N   0  0  0  0  0  0  0  0  0  0  0  0
   -5.1962   -0.0000    0.0000 C   0  0  0  0  0  0  0  0  0  0  0  0
   -6.0622    0.5000    0.0000 N   0  0  0  0  0  0  0  0  0  0  0  0
   -4.3301    0.5000    0.0000 N   0  0  0  0  0  0  0  0  0  0  0  0
   -3.4641    0.0000    0.0000 C   0  0  0  0  0  0  0  0  0  0  0  0
   -2.5981    0.5000    0.0000 N   0  0  0  0  0  0  0  0  0  0  0  0
   -1.7321   -0.0000    0.0000 C   0  0  0  0  0  0  0  0  0  0  0  0
   -0.8660    0.5000    0.0000 C   0  0  0  0  0  0  0  0  0  0  0  0
   -0.8660    1.5000    0.0000 O   0  0  0  0  0  0  0  0  0  0  0  0
   -1.7321    2.0000    0.0000 C   0  0  0  0  0  0  0  0  0  0  0  0
    0.0000    0.0000    0.0000 C   0  0  0  0  0  0  0  0  0  0  0  0
    0.8660    0.5000    0.0000 O   0  0  0  0  0  0  0  0  0  0  0  0
    0.8660    1.5000    0.0000 C   0  0  0  0  0  0  0  0  0  0  0  0
  1  2  1  0  0  0  0
  2  3  1  0  0  0  0
  3 19  1  0  0  0  0
  3  4  2  0  0  0  0
  4  5  1  0  0  0  0
  5  6  1  0  0  0  0
  5 15  2  0  0  0  0
  6  7  1  0  0  0  0
  7 13  1  0  0  0  0
  7  8  2  0  0  0  0
  8  9  1  0  0  0  0
  9 10  2  0  0  0  0
 10 11  1  0  0  0  0
 10 12  1  0  0  0  0
 12 13  2  0  0  0  0
 13 14  1  0  0  0  0
 15 16  1  0  0  0  0
 16 17  1  0  0  0  0
 16 19  2  0  0  0  0
 17 18  1  0  0  0  0
 19 20  1  0  0  0  0
 20 21  1  0  0  0  0
M  END
$$$$

 OpenBabel10082008492D

 14 14  0  0  1  0  0  0  0  0999 V2000
    2.5981   -2.5000    0.0000 N   0  0  0  0  0  0  0  0  0  0  0  0
    1.7321   -2.0000    0.0000 C   0  0  1  0  0  0  0  0  0  0  0  0
    2.2321   -1.1340    0.0000 H   0  0  0  0  0  0  0  0  0  0  0  0
    0.8660   -1.5000    0.0000 C   0  0  0  0  0  0  0  0  0  0  0  0
    0.8660   -0.5000    0.0000 C   0  0  0  0  0  0  0  0  0  0  0  0
    1.7321   -0.0000    0.0000 C   0  0  0  0  0  0  0  0  0  0  0  0
    1.7321    1.0000    0.0000 C   0  0  0  0  0  0  0  0  0  0  0  0
    0.8660    1.5000    0.0000 C   0  0  0  0  0  0  0  0  0  0  0  0
    0.8660    2.5000    0.0000 O   0  0  0  0  0  0  0  0  0  0  0  0
    0.0000    1.0000    0.0000 C   0  0  0  0  0  0  0  0  0  0  0  0
   -0.0000   -0.0000    0.0000 C   0  0  0  0  0  0  0  0  0  0  0  0
    1.2321   -2.8660    0.0000 C   0  0  0  0  0  0  0  0  0  0  0  0
    0.2321   -2.8660    0.0000 O   0  0  0  0  0  0  0  0  0  0  0  0
    1.7321   -3.7321    0.0000 O   0  0  0  0  0  0  0  0  0  0  0  0
  1  2  1  0  0  0  0
  2  3  1  1  0  0  0
  2  4  1  0  0  0  0
  2 12  1  0  0  0  0
  4  5  1  0  0  0  0
  5 11  1  0  0  0  0
  5  6  2  0  0  0  0
  6  7  1  0  0  0  0
  7  8  2  0  0  0  0
  8  9  1  0  0  0  0
  8 10  1  0  0  0  0
 10 11  2  0  0  0  0
 12 13  2  0  0  0  0
 12 14  1  0  0  0  0
M  END
$$$$

 OpenBabel10082008492D

 32 34  0  0  0  0  0  0  0  0999 V2000
    1.2202   -2.7406    0.0000 C   0  0  0  0  0  0  0  0  0  0  0  0
    1.8080   -1.9316    0.0000 N   0  0  0  0  0  0  0  0  0  0  0  0
    1.4013   -1.0181    0.0000 C   0  0  0  0  0  0  0  0  0  0  0  0
    1.9890   -0.2091    0.0000 O   0  0  0  0  0  0  0  0  0  0  0  0
    0.4067   -0.9135    0.0000 C   0  0  0  0  0  0  0  0  0  0  0  0
   -0.1810   -1.7226    0.0000 C   0  0  0  0  0  0  0  0  0  0  0  0
   -1.1756   -1.6180    0.0000 C   0  0  0  0  0  0  0  0  0  0  0  0
   -1.5823   -0.7045    0.0000 C   0  0  0  0  0  0  0  0  0  0  0  0
   -2.5768   -0.6000    0.0000 N   0  0  0  0  0  0  0  0  0  0  0  0
   -3.2460   -1.3431    0.0000 C   0  0  0  0  0  0  0  0  0  0  0  0
   -3.0380   -2.3213    0.0000 S   0  0  0  0  0  0  0  0  0  0  0  0
   -4.1595   -0.9364    0.0000 N   0  0  0  0  0  0  0  0  0  0  0  0
   -5.0255   -1.4364    0.0000 C   0  0  0  0  0  0  0  0  0  0  0  0
   -5.0255   -2.4364    0.0000 C   0  0  0  0  0  0  0  0  0  0  0  0
   -5.8916   -2.9364    0.0000 C   0  0  0  0  0  0  0  0  0  0  0  0
   -6.7576   -2.4364    0.0000 C   0  0  0  0  0  0  0  0  0  0  0  0
   -7.6236   -2.9364    0.0000 C   0  0  0  0  0  0  0  0  0  0  0  0
   -8.4896   -3.4364    0.0000 N   0  0  0  0  0  0  0  0  0  0  0  0
   -6.7576   -1.4364    0.0000 C   0  0  0  0  0  0  0  0  0  0  0  0
   -7.6236   -0.9364    0.0000 C   0  0  0  0  0  0  0  0  0  0  0  0
   -8.6236   -0.9364    0.0000 F   0  0  0  0  0  0  0  0  0  0  0  0
   -8.1236   -1.8024    0.0000 F   0  0  0  0  0  0  0  0  0  0  0  0
   -7.6236    0.0636    0.0000 F   0  0  0  0  0  0  0  0  0  0  0  0
   -5.8916   -0.9364    0.0000 C   0  0  0  0  0  0  0  0  0  0  0  0
   -4.0550    0.0582    0.0000 C   0  0  0  0  0  0  0  0  0  0  0  0
   -4.7981    0.7273    0.0000 O   0  0  0  0  0  0  0  0  0  0  0  0
   -3.0768    0.2661    0.0000 C   0  0  0  0  0  0  0  0  0  0  0  0
   -2.2678    0.8539    0.0000 C   0  0  0  0  0  0  0  0  0  0  0  0
   -3.1814    1.2606    0.0000 C   0  0  0  0  0  0  0  0  0  0  0  0
   -0.9945    0.1045    0.0000 C   0  0  0  0  0  0  0  0  0  0  0  0
   -0.0000   -0.0000    0.0000 C   0  0  0  0  0  0  0  0  0  0  0  0
    0.5878    0.8090    0.0000 F   0  0  0  0  0  0  0  0  0  0  0  0
  1  2  1  0  0  0  0
  2  3  1  0  0  0  0
  3  4  2  0  0  0  0
  3  5  1  0  0  0  0
  5 31  1  0  0  0  0
  5  6  2  0  0  0  0
  6  7  1  0  0  0  0
  7  8  2  0  0  0  0
  8  9  1  0  0  0  0
  8 30  1  0  0  0  0
  9 27  1  0  0  0  0
  9 10  1  0  0  0  0
 10 11  2  0  0  0  0
 10 12  1  0  0  0  0
 12 13  1  0  0  0  0
 12 25  1  0  0  0  0
 13 24  1  0  0  0  0
 13 14  2  0  0  0  0
 14 15  1  0  0  0  0
 15 16  2  0  0  0  0
 16 17  1  0  0  0  0
 16 19  1  0  0  0  0
 17 18  3  0  0  0  0
 19 20  1  0  0  0  0
 19 24  2  0  0  0  0
 20 21  1  0  0  0  0
 20 22  1  0  0  0  0
 20 23  1  0  0  0  0
 25 26  2  0  0  0  0
 25 27  1  0  0  0  0
 27 28  1  0  0  0  0
 27 29  1  0  0  0  0
 30 31  2  0  0  0  0
 31 32  1  0  0  0  0
M  END
$$$$

 OpenBabel10082008492D

 21 22  0  0  0  0  0  0  0  0999 V2000
    1.8660   -1.5000    0.0000 C   0  0  0  0  0  0  0  0  0  0  0  0
    1.0000   -1.0000    0.0000 N   0  0  0  0  0  0  0  0  0  0  0  0
    1.0000   -0.0000    0.0000 S   0  0  0  0  0  0  0  0  0  0  0  0
    2.0000   -0.0000    0.0000 O   0  0  0  0  0  0  0  0  0  0  0  0
    1.0000    1.0000    0.0000 O   0  0  0  0  0  0  0  0  0  0  0  0
   -0.0000   -0.0000    0.0000 C   0  0  0  0  0  0  0  0  0  0  0  0
   -0.5000   -0.8660    0.0000 C   0  0  0  0  0  0  0  0  0  0  0  0
   -0.0000   -1.7321    0.0000 C   0  0  0  0  0  0  0  0  0  0  0  0
   -0.5000   -2.5981    0.0000 C   0  0  0  0  0  0  0  0  0  0  0  0
   -1.5000   -2.5981    0.0000 C   0  0  0  0  0  0  0  0  0  0  0  0
   -2.1691   -3.3412    0.0000 N   0  0  0  0  0  0  0  0  0  0  0  0
   -1.9612   -4.3194    0.0000 H   0  0  0  0  0  0  0  0  0  0  0  0
   -3.0827   -2.9345    0.0000 C   0  0  0  0  0  0  0  0  0  0  0  0
   -2.9781   -1.9400    0.0000 C   0  0  0  0  0  0  0  0  0  0  0  0
   -3.7213   -1.2708    0.0000 C   0  0  0  0  0  0  0  0  0  0  0  0
   -4.6723   -1.5798    0.0000 C   0  0  0  0  0  0  0  0  0  0  0  0
   -5.4155   -0.9107    0.0000 N   0  0  0  0  0  0  0  0  0  0  0  0
   -5.2076    0.0674    0.0000 C   0  0  0  0  0  0  0  0  0  0  0  0
   -6.3666   -1.2197    0.0000 C   0  0  0  0  0  0  0  0  0  0  0  0
   -2.0000   -1.7321    0.0000 C   0  0  0  0  0  0  0  0  0  0  0  0
   -1.5000   -0.8660    0.0000 C   0  0  0  0  0  0  0  0  0  0  0  0
  1  2  1  0  0  0  0
  2  3  1  0  0  0  0
  3  4  2  0  0  0  0
  3  5  2  0  0  0  0
  3  6  1  0  0  0  0
  6  7  1  0  0  0  0
  7 21  1  0  0  0  0
  7  8  2  0  0  0  0
  8  9  1  0  0  0  0
  9 10  2  0  0  0  0
 10 20  1  0  0  0  0
 10 11  1  0  0  0  0
 11 12  1  0  0  0  0
 11 13  1  0  0  0  0
 13 14  2  0  0  0  0
 14 15  1  0  0  0  0
 14 20  1  0  0  0  0
 15 16  1  0  0  0  0
 16 17  1  0  0  0  0
 17 18  1  0  0  0  0
 17 19  1  0  0  0  0
 20 21  2  0  0  0  0
M  END
$$$$

 OpenBabel10082008492D

 21 22  0  0  0  0  0  0  0  0999 V2000
   -5.3007   -0.0055    0.0000 C   0  0  0  0  0  0  0  0  0  0  0  0
   -4.4347   -0.5055    0.0000 C   0  0  0  0  0  0  0  0  0  0  0  0
   -4.4347   -1.5055    0.0000 O   0  0  0  0  0  0  0  0  0  0  0  0
   -3.5686   -0.0055    0.0000 O   0  0  0  0  0  0  0  0  0  0  0  0
   -3.5686    0.9945    0.0000 C   0  0  0  0  0  0  0  0  0  0  0  0
   -4.4347    1.4945    0.0000 C   0  0  0  0  0  0  0  0  0  0  0  0
   -4.4347    2.4945    0.0000 C   0  0  0  0  0  0  0  0  0  0  0  0
   -3.5686    2.9945    0.0000 C   0  0  0  0  0  0  0  0  0  0  0  0
   -2.7026    2.4945    0.0000 C   0  0  0  0  0  0  0  0  0  0  0  0
   -2.7026    1.4945    0.0000 C   0  0  0  0  0  0  0  0  0  0  0  0
   -1.8366    0.9945    0.0000 C   0  0  0  0  0  0  0  0  0  0  0  0
   -1.8366   -0.0055    0.0000 O   0  0  0  0  0  0  0  0  0  0  0  0
   -0.9706    1.4945    0.0000 N   0  0  0  0  0  0  0  0  0  0  0  0
   -0.1045    0.9945    0.0000 C   0  0  0  0  0  0  0  0  0  0  0  0
    0.8090    1.4013    0.0000 N   0  0  0  0  0  0  0  0  0  0  0  0
    1.4781    0.6581    0.0000 C   0  0  0  0  0  0  0  0  0  0  0  0
    0.9781   -0.2079    0.0000 C   0  0  0  0  0  0  0  0  0  0  0  0
    1.3849   -1.1215    0.0000 N   0  3  0  0  0  0  0  0  0  0  0  0
    0.7971   -1.9305    0.0000 O   0  0  0  0  0  0  0  0  0  0  0  0
    2.3794   -1.2260    0.0000 O   0  5  0  0  0  0  0  0  0  0  0  0
    0.0000   -0.0000    0.0000 S   0  0  0  0  0  0  0  0  0  0  0  0
  1  2  1  0  0  0  0
  2  3  2  0  0  0  0
  2  4  1  0  0  0  0
  4  5  1  0  0  0  0
  5 10  1  0  0  0  0
  5  6  2  0  0  0  0
  6  7  1  0  0  0  0
  7  8  2  0  0  0  0
  8  9  1  0  0  0  0
  9 10  2  0  0  0  0
 10 11  1  0  0  0  0
 11 12  2  0  0  0  0
 11 13  1  0  0  0  0
 13 14  1  0  0  0  0
 14 21  1  0  0  0  0
 14 15  2  0  0  0  0
 15 16  1  0  0  0  0
 16 17  2  0  0  0  0
 17 18  1  0  0  0  0
 17 21  1  0  0  0  0
 18 19  2  0  0  0  0
 18 20  1  0  0  0  0
M  CHG  2  18   1  20  -1
M  END
$$$$

 OpenBabel10082008492D

 16 16  0  0  0  0  0  0  0  0999 V2000
    1.0000   -1.0000    0.0000 N   0  0  0  0  0  0  0  0  0  0  0  0
    1.0000   -0.0000    0.0000 S   0  0  0  0  0  0  0  0  0  0  0  0
    2.0000    0.0000    0.0000 O   0  0  0  0  0  0  0  0  0  0  0  0
    1.0000    1.0000    0.0000 O   0  0  0  0  0  0  0  0  0  0  0  0
    0.0000    0.0000    0.0000 C   0  0  0  0  0  0  0  0  0  0  0  0
   -0.5000   -0.8660    0.0000 C   0  0  0  0  0  0  0  0  0  0  0  0
   -1.5000   -0.8660    0.0000 C   0  0  0  0  0  0  0  0  0  0  0  0
   -2.0000   -1.7321    0.0000 Cl  0  0  0  0  0  0  0  0  0  0  0  0
   -2.0000   -0.0000    0.0000 C   0  0  0  0  0  0  0  0  0  0  0  0
   -3.0000   -0.0000    0.0000 Cl  0  0  0  0  0  0  0  0  0  0  0  0
   -1.5000    0.8660    0.0000 C   0  0  0  0  0  0  0  0  0  0  0  0
   -2.0000    1.7321    0.0000 S   0  0  0  0  0  0  0  0  0  0  0  0
   -1.1340    2.2321    0.0000 N   0  0  0  0  0  0  0  0  0  0  0  0
   -2.5000    2.5981    0.0000 O   0  0  0  0  0  0  0  0  0  0  0  0
   -2.8660    1.2321    0.0000 O   0  0  0  0  0  0  0  0  0  0  0  0
   -0.5000    0.8660    0.0000 C   0  0  0  0  0  0  0  0  0  0  0  0
  1  2  1  0  0  0  0
  2  3  2  0  0  0  0
  2  4  2  0  0  0  0
  2  5  1  0  0  0  0
  5 16  1  0  0  0  0
  5  6  2  0  0  0  0
  6  7  1  0  0  0  0
  7  8  1  0  0  0  0
  7  9  2  0  0  0  0
  9 10  1  0  0  0  0
  9 11  1  0  0  0  0
 11 12  1  0  0  0  0
 11 16  2  0  0  0  0
 12 13  1  0  0  0  0
 12 14  2  0  0  0  0
 12 15  2  0  0  0  0
M  END
$$$$

 OpenBabel10082008492D

 26 29  0  0  0  0  0  0  0  0999 V2000
   -0.4612   -1.7213    0.0000 O   0  0  0  0  0  0  0  0  0  0  0  0
   -0.6691   -0.7431    0.0000 C   0  0  0  0  0  0  0  0  0  0  0  0
   -1.5827   -0.3364    0.0000 N   0  0  0  0  0  0  0  0  0  0  0  0
   -2.4487   -0.8364    0.0000 C   0  0  0  0  0  0  0  0  0  0  0  0
   -3.3147   -0.3364    0.0000 C   0  0  0  0  0  0  0  0  0  0  0  0
   -4.1808   -0.8364    0.0000 C   0  0  0  0  0  0  0  0  0  0  0  0
   -5.0468   -0.3364    0.0000 N   0  0  0  0  0  0  0  0  0  0  0  0
   -5.9128   -0.8364    0.0000 C   0  0  0  0  0  0  0  0  0  0  0  0
   -6.7788   -0.3364    0.0000 C   0  0  0  0  0  0  0  0  0  0  0  0
   -6.7788    0.6636    0.0000 N   0  0  0  0  0  0  0  0  0  0  0  0
   -7.6449    1.1636    0.0000 C   0  0  0  0  0  0  0  0  0  0  0  0
   -8.5109    0.6636    0.0000 C   0  0  0  0  0  0  0  0  0  0  0  0
   -9.3769    1.1636    0.0000 C   0  0  0  0  0  0  0  0  0  0  0  0
   -9.3769    2.1636    0.0000 C   0  0  0  0  0  0  0  0  0  0  0  0
   -8.5109    2.6636    0.0000 C   0  0  0  0  0  0  0  0  0  0  0  0
   -8.5109    3.6636    0.0000 Cl  0  0  0  0  0  0  0  0  0  0  0  0
   -7.6449    2.1636    0.0000 C   0  0  0  0  0  0  0  0  0  0  0  0
   -5.9128    1.1636    0.0000 C   0  0  0  0  0  0  0  0  0  0  0  0
   -5.0468    0.6636    0.0000 C   0  0  0  0  0  0  0  0  0  0  0  0
   -1.4781    0.6581    0.0000 N   0  0  0  0  0  0  0  0  0  0  0  0
   -0.5000    0.8660    0.0000 C   0  0  0  0  0  0  0  0  0  0  0  0
    0.0000    1.7321    0.0000 C   0  0  0  0  0  0  0  0  0  0  0  0
    1.0000    1.7321    0.0000 C   0  0  0  0  0  0  0  0  0  0  0  0
    1.5000    0.8660    0.0000 C   0  0  0  0  0  0  0  0  0  0  0  0
    1.0000   -0.0000    0.0000 C   0  0  0  0  0  0  0  0  0  0  0  0
   -0.0000   -0.0000    0.0000 N   0  0  0  0  0  0  0  0  0  0  0  0
  1  2  2  0  0  0  0
  2 26  1  0  0  0  0
  2  3  1  0  0  0  0
  3  4  1  0  0  0  0
  3 20  1  0  0  0  0
  4  5  1  0  0  0  0
  5  6  1  0  0  0  0
  6  7  1  0  0  0  0
  7 19  1  0  0  0  0
  7  8  1  0  0  0  0
  8  9  1  0  0  0  0
  9 10  1  0  0  0  0
 10 11  1  0  0  0  0
 10 18  1  0  0  0  0
 11 17  1  0  0  0  0
 11 12  2  0  0  0  0
 12 13  1  0  0  0  0
 13 14  2  0  0  0  0
 14 15  1  0  0  0  0
 15 16  1  0  0  0  0
 15 17  2  0  0  0  0
 18 19  1  0  0  0  0
 20 21  2  0  0  0  0
 21 26  1  0  0  0  0
 21 22  1  0  0  0  0
 22 23  2  0  0  0  0
 23 24  1  0  0  0  0
 24 25  2  0  0  0  0
 25 26  1  0  0  0  0
M  END
$$$$

 OpenBabel10082008492D

 19 20  0  0  1  0  0  0  0  0999 V2000
   -2.5981   -4.5000    0.0000 C   0  0  0  0  0  0  0  0  0  0  0  0
   -1.7321   -5.0000    0.0000 C   0  0  0  0  0  0  0  0  0  0  0  0
   -1.7321   -6.0000    0.0000 C   0  0  0  0  0  0  0  0  0  0  0  0
   -0.8660   -4.5000    0.0000 N   0  0  0  0  0  0  0  0  0  0  0  0
   -0.8660   -3.5000    0.0000 C   0  0  0  0  0  0  0  0  0  0  0  0
    0.0000   -3.0000    0.0000 C   0  0  3  0  0  0  0  0  0  0  0  0
    0.8660   -3.5000    0.0000 O   0  0  0  0  0  0  0  0  0  0  0  0
    0.0000   -2.0000    0.0000 C   0  0  0  0  0  0  0  0  0  0  0  0
   -0.8660   -1.5000    0.0000 O   0  0  0  0  0  0  0  0  0  0  0  0
   -0.8660   -0.5000    0.0000 C   0  0  0  0  0  0  0  0  0  0  0  0
   -1.7321   -0.0000    0.0000 C   0  0  0  0  0  0  0  0  0  0  0  0
   -1.7321    1.0000    0.0000 C   0  0  0  0  0  0  0  0  0  0  0  0
   -0.8660    1.5000    0.0000 C   0  0  0  0  0  0  0  0  0  0  0  0
   -0.0000    1.0000    0.0000 C   0  0  0  0  0  0  0  0  0  0  0  0
    0.9511    1.3090    0.0000 N   0  0  0  0  0  0  0  0  0  0  0  0
    1.2601    2.2601    0.0000 H   0  0  0  0  0  0  0  0  0  0  0  0
    1.5388    0.5000    0.0000 C   0  0  0  0  0  0  0  0  0  0  0  0
    0.9511   -0.3090    0.0000 C   0  0  0  0  0  0  0  0  0  0  0  0
    0.0000   -0.0000    0.0000 C   0  0  0  0  0  0  0  0  0  0  0  0
  1  2  1  0  0  0  0
  2  3  1  0  0  0  0
  2  4  1  0  0  0  0
  4  5  1  0  0  0  0
  5  6  1  0  0  0  0
  6  7  1  0  0  0  0
  6  8  1  0  0  0  0
  8  9  1  0  0  0  0
  9 10  1  0  0  0  0
 10 19  1  0  0  0  0
 10 11  2  0  0  0  0
 11 12  1  0  0  0  0
 12 13  2  0  0  0  0
 13 14  1  0  0  0  0
 14 19  2  0  0  0  0
 14 15  1  0  0  0  0
 15 16  1  0  0  0  0
 15 17  1  0  0  0  0
 17 18  2  0  0  0  0
 18 19  1  0  0  0  0
M  END
$$$$

 OpenBabel10082008492D

 38 42  0  0  1  0  0  0  0  0999 V2000
    2.3967   -0.3018    0.0000 C   0  0  0  0  0  0  0  0  0  0  0  0
    1.5509   -0.7902    0.0000 C   0  0  0  0  0  0  0  0  0  0  0  0
    1.5509    0.1865    0.0000 C   0  0  0  0  0  0  0  0  0  0  0  0
    2.0392   -1.6361    0.0000 C   0  0  0  0  0  0  0  0  0  0  0  0
    3.0160   -1.6361    0.0000 O   0  0  0  0  0  0  0  0  0  0  0  0
    0.5741   -0.7902    0.0000 C   0  0  0  0  0  0  0  0  0  0  0  0
   -0.0000   -1.5804    0.0000 C   0  0  0  0  0  0  0  0  0  0  0  0
   -0.9289   -1.2786    0.0000 C   0  0  0  0  0  0  0  0  0  0  0  0
   -1.7748   -1.7669    0.0000 C   0  0  0  0  0  0  0  0  0  0  0  0
   -2.6207   -1.2786    0.0000 C   0  0  0  0  0  0  0  0  0  0  0  0
   -3.4666   -1.7669    0.0000 N   0  0  0  0  0  0  0  0  0  0  0  0
   -4.3125   -1.2786    0.0000 C   0  0  0  0  0  0  0  0  0  0  0  0
   -4.3125   -0.3018    0.0000 O   0  0  0  0  0  0  0  0  0  0  0  0
   -6.0043   -2.2553    0.0000 C   0  0  0  0  0  0  0  0  0  0  0  0
   -6.0043   -1.2786    0.0000 C   0  0  0  0  0  0  0  0  0  0  0  0
   -6.8501   -0.7902    0.0000 C   0  0  0  0  0  0  0  0  0  0  0  0
   -6.8501    0.1865    0.0000 C   0  0  0  0  0  0  0  0  0  0  0  0
   -6.0043    0.6749    0.0000 C   0  0  0  0  0  0  0  0  0  0  0  0
   -5.1584    0.1865    0.0000 C   0  0  0  0  0  0  0  0  0  0  0  0
   -5.1584   -0.7902    0.0000 C   0  0  0  0  0  0  0  0  0  0  0  0
   -4.4325    0.8401    0.0000 O   0  0  0  0  0  0  0  0  0  0  0  0
   -4.8298    1.7324    0.0000 C   0  0  0  0  0  0  0  0  0  0  0  0
   -3.9839    2.2208    0.0000 F   0  0  0  0  0  0  0  0  0  0  0  0
   -4.8298    2.7092    0.0000 F   0  0  0  0  0  0  0  0  0  0  0  0
   -5.8012    1.6303    0.0000 O   0  0  0  0  0  0  0  0  0  0  0  0
   -6.0043   -3.2321    0.0000 C   0  0  0  0  0  0  0  0  0  0  0  0
   -6.8501   -2.7437    0.0000 C   0  0  0  0  0  0  0  0  0  0  0  0
   -2.6207   -0.3018    0.0000 C   0  0  0  0  0  0  0  0  0  0  0  0
   -3.4666    0.1865    0.0000 F   0  0  0  0  0  0  0  0  0  0  0  0
   -1.7748    0.1865    0.0000 C   0  0  0  0  0  0  0  0  0  0  0  0
   -0.9289   -0.3018    0.0000 C   0  0  0  0  0  0  0  0  0  0  0  0
   -0.0000   -0.0000    0.0000 N   0  0  0  0  0  0  0  0  0  0  0  0
    0.3018    0.9289    0.0000 C   0  0  0  0  0  0  0  0  0  0  0  0
   -0.3517    1.6548    0.0000 C   0  0  1  0  0  0  0  0  0  0  0  0
   -0.5548    2.6102    0.0000 H   0  0  0  0  0  0  0  0  0  0  0  0
    0.3741    2.3084    0.0000 O   0  0  0  0  0  0  0  0  0  0  0  0
   -1.3071    1.4517    0.0000 C   0  0  0  0  0  0  0  0  0  0  0  0
   -1.9607    2.1776    0.0000 O   0  0  0  0  0  0  0  0  0  0  0  0
  1  2  1  0  0  0  0
  2  3  1  0  0  0  0
  2  4  1  0  0  0  0
  2  6  1  0  0  0  0
  4  5  1  0  0  0  0
  6 32  1  0  0  0  0
  6  7  2  0  0  0  0
  7  8  1  0  0  0  0
  8 31  1  0  0  0  0
  8  9  2  0  0  0  0
  9 10  1  0  0  0  0
 10 11  1  0  0  0  0
 10 28  2  0  0  0  0
 11 12  1  0  0  0  0
 12 13  2  0  0  0  0
 12 14  1  0  0  0  0
 14 27  1  0  0  0  0
 14 15  1  0  0  0  0
 14 26  1  0  0  0  0
 15 20  1  0  0  0  0
 15 16  2  0  0  0  0
 16 17  1  0  0  0  0
 17 18  2  0  0  0  0
 18 25  1  0  0  0  0
 18 19  1  0  0  0  0
 19 20  2  0  0  0  0
 19 21  1  0  0  0  0
 21 22  1  0  0  0  0
 22 23  1  0  0  0  0
 22 24  1  0  0  0  0
 22 25  1  0  0  0  0
 26 27  1  0  0  0  0
 28 29  1  0  0  0  0
 28 30  1  0  0  0  0
 30 31  2  0  0  0  0
 31 32  1  0  0  0  0
 32 33  1  0  0  0  0
 33 34  1  0  0  0  0
 34 35  1  1  0  0  0
 34 36  1  0  0  0  0
 34 37  1  0  0  0  0
 37 38  1  0  0  0  0
M  END
$$$$

 OpenBabel10082008492D

 27 30  0  0  1  0  0  0  0  0999 V2000
   -1.6815   -1.9498    0.0000 C   0  0  0  0  0  0  0  0  0  0  0  0
   -0.8425   -1.4593    0.0000 C   0  0  1  0  0  0  0  0  0  0  0  0
   -0.8321   -2.4311    0.0000 H   0  0  0  0  0  0  0  0  0  0  0  0
   -0.0046   -1.9431    0.0000 C   0  0  0  0  0  0  0  0  0  0  0  0
    0.8330   -1.4605    0.0000 O   0  0  0  0  0  0  0  0  0  0  0  0
    0.8380   -0.4838    0.0000 C   0  0  0  0  0  0  0  0  0  0  0  0
    1.6784    0.0039    0.0000 C   0  0  0  0  0  0  0  0  0  0  0  0
    2.5160   -0.4780    0.0000 N   0  0  0  0  0  0  0  0  0  0  0  0
    3.4491   -0.2264    0.0000 C   0  0  0  0  0  0  0  0  0  0  0  0
    4.1334   -0.9086    0.0000 C   0  0  0  0  0  0  0  0  0  0  0  0
    3.8848   -1.8425    0.0000 N   0  0  0  0  0  0  0  0  0  0  0  0
    4.5692   -2.5247    0.0000 C   0  0  0  0  0  0  0  0  0  0  0  0
    2.9518   -2.0940    0.0000 C   0  0  0  0  0  0  0  0  0  0  0  0
    2.2674   -1.4118    0.0000 C   0  0  0  0  0  0  0  0  0  0  0  0
    1.6775    0.9702    0.0000 C   0  0  0  0  0  0  0  0  0  0  0  0
    2.5168    1.4566    0.0000 F   0  0  0  0  0  0  0  0  0  0  0  0
    0.8395    1.4540    0.0000 C   0  0  0  0  0  0  0  0  0  0  0  0
   -0.0076    0.9773    0.0000 C   0  0  0  0  0  0  0  0  0  0  0  0
   -0.8506    1.4640    0.0000 C   0  0  0  0  0  0  0  0  0  0  0  0
   -0.8570    2.4340    0.0000 O   0  0  0  0  0  0  0  0  0  0  0  0
   -1.6917    0.9634    0.0000 C   0  0  0  0  0  0  0  0  0  0  0  0
   -2.5285    1.4416    0.0000 C   0  0  0  0  0  0  0  0  0  0  0  0
   -2.7820    2.3714    0.0000 O   0  0  0  0  0  0  0  0  0  0  0  0
   -3.2070    0.7571    0.0000 O   0  0  0  0  0  0  0  0  0  0  0  0
   -1.6960   -0.0004    0.0000 C   0  0  0  0  0  0  0  0  0  0  0  0
   -0.8530   -0.4871    0.0000 N   0  0  0  0  0  0  0  0  0  0  0  0
    0.0000   -0.0000    0.0000 C   0  0  0  0  0  0  0  0  0  0  0  0
  1  2  1  0  0  0  0
  2  3  1  1  0  0  0
  2 26  1  0  0  0  0
  2  4  1  0  0  0  0
  4  5  1  0  0  0  0
  5  6  1  0  0  0  0
  6 27  1  0  0  0  0
  6  7  2  0  0  0  0
  7  8  1  0  0  0  0
  7 15  1  0  0  0  0
  8 14  1  0  0  0  0
  8  9  1  0  0  0  0
  9 10  1  0  0  0  0
 10 11  1  0  0  0  0
 11 12  1  0  0  0  0
 11 13  1  0  0  0  0
 13 14  1  0  0  0  0
 15 16  1  0  0  0  0
 15 17  2  0  0  0  0
 17 18  1  0  0  0  0
 18 27  2  0  0  0  0
 18 19  1  0  0  0  0
 19 20  2  0  0  0  0
 19 21  1  0  0  0  0
 21 22  1  0  0  0  0
 21 25  2  0  0  0  0
 22 23  2  0  0  0  0
 22 24  1  0  0  0  0
 25 26  1  0  0  0  0
 26 27  1  0  0  0  0
M  END
$$$$

 OpenBabel10082008492D

 19 20  0  0  0  0  0  0  0  0999 V2000
    4.3581   -1.7788    0.0000 C   0  0  0  0  0  0  0  0  0  0  0  0
    3.4071   -2.0878    0.0000 C   0  0  0  0  0  0  0  0  0  0  0  0
    3.0981   -3.0388    0.0000 O   0  0  0  0  0  0  0  0  0  0  0  0
    2.0981   -3.0388    0.0000 N   0  0  0  0  0  0  0  0  0  0  0  0
    1.7891   -2.0878    0.0000 C   0  0  0  0  0  0  0  0  0  0  0  0
    2.5981   -1.5000    0.0000 C   0  0  0  0  0  0  0  0  0  0  0  0
    2.5981   -0.5000    0.0000 C   0  0  0  0  0  0  0  0  0  0  0  0
    3.4641   -0.0000    0.0000 O   0  0  0  0  0  0  0  0  0  0  0  0
    1.7321   -0.0000    0.0000 N   0  0  0  0  0  0  0  0  0  0  0  0
    0.8660   -0.5000    0.0000 C   0  0  0  0  0  0  0  0  0  0  0  0
    0.8660   -1.5000    0.0000 C   0  0  0  0  0  0  0  0  0  0  0  0
    0.0000   -2.0000    0.0000 C   0  0  0  0  0  0  0  0  0  0  0  0
   -0.8660   -1.5000    0.0000 C   0  0  0  0  0  0  0  0  0  0  0  0
   -1.7321   -2.0000    0.0000 C   0  0  0  0  0  0  0  0  0  0  0  0
   -2.2321   -2.8660    0.0000 F   0  0  0  0  0  0  0  0  0  0  0  0
   -1.2321   -2.8660    0.0000 F   0  0  0  0  0  0  0  0  0  0  0  0
   -2.5981   -1.5000    0.0000 F   0  0  0  0  0  0  0  0  0  0  0  0
   -0.8660   -0.5000    0.0000 C   0  0  0  0  0  0  0  0  0  0  0  0
    0.0000   -0.0000    0.0000 C   0  0  0  0  0  0  0  0  0  0  0  0
  1  2  1  0  0  0  0
  2  6  2  0  0  0  0
  2  3  1  0  0  0  0
  3  4  1  0  0  0  0
  4  5  2  0  0  0  0
  5  6  1  0  0  0  0
  6  7  1  0  0  0  0
  7  8  2  0  0  0  0
  7  9  1  0  0  0  0
  9 10  1  0  0  0  0
 10 19  1  0  0  0  0
 10 11  2  0  0  0  0
 11 12  1  0  0  0  0
 12 13  2  0  0  0  0
 13 14  1  0  0  0  0
 13 18  1  0  0  0  0
 14 15  1  0  0  0  0
 14 16  1  0  0  0  0
 14 17  1  0  0  0  0
 18 19  2  0  0  0  0
M  END
$$$$

 OpenBabel10082008492D

 17 17  0  0  1  0  0  0  0  0999 V2000
   -3.4641   -0.0000    0.0000 C   0  0  0  0  0  0  0  0  0  0  0  0
   -2.5981   -0.5000    0.0000 C   0  0  0  0  0  0  0  0  0  0  0  0
   -1.5981   -0.5000    0.0000 C   0  0  0  0  0  0  0  0  0  0  0  0
   -2.0981    0.3660    0.0000 C   0  0  0  0  0  0  0  0  0  0  0  0
   -2.5981   -1.5000    0.0000 N   0  0  0  0  0  0  0  0  0  0  0  0
   -1.7321   -2.0000    0.0000 C   0  0  0  0  0  0  0  0  0  0  0  0
   -0.8660   -1.5000    0.0000 C   0  0  3  0  0  0  0  0  0  0  0  0
   -0.0000   -2.0000    0.0000 O   0  0  0  0  0  0  0  0  0  0  0  0
   -0.8660   -0.5000    0.0000 C   0  0  0  0  0  0  0  0  0  0  0  0
   -1.7321   -0.0000    0.0000 C   0  0  0  0  0  0  0  0  0  0  0  0
   -1.7321    1.0000    0.0000 C   0  0  0  0  0  0  0  0  0  0  0  0
   -0.8660    1.5000    0.0000 C   0  0  0  0  0  0  0  0  0  0  0  0
   -0.8660    2.5000    0.0000 O   0  0  0  0  0  0  0  0  0  0  0  0
   -0.0000    1.0000    0.0000 C   0  0  0  0  0  0  0  0  0  0  0  0
    0.8660    1.5000    0.0000 C   0  0  0  0  0  0  0  0  0  0  0  0
    0.8660    2.5000    0.0000 O   0  0  0  0  0  0  0  0  0  0  0  0
    0.0000   -0.0000    0.0000 C   0  0  0  0  0  0  0  0  0  0  0  0
  1  2  1  0  0  0  0
  2  3  1  0  0  0  0
  2  4  1  0  0  0  0
  2  5  1  0  0  0  0
  5  6  1  0  0  0  0
  6  7  1  0  0  0  0
  7  8  1  0  0  0  0
  7  9  1  0  0  0  0
  9 17  1  0  0  0  0
  9 10  2  0  0  0  0
 10 11  1  0  0  0  0
 11 12  2  0  0  0  0
 12 13  1  0  0  0  0
 12 14  1  0  0  0  0
 14 15  1  0  0  0  0
 14 17  2  0  0  0  0
 15 16  1  0  0  0  0
M  END
$$$$

 OpenBabel10082008492D

 35 39  0  0  0  0  0  0  0  0999 V2000
   -1.7213    0.4612    0.0000 C   0  0  0  0  0  0  0  0  0  0  0  0
   -0.7431    0.6691    0.0000 C   0  0  0  0  0  0  0  0  0  0  0  0
   -0.3364    1.5827    0.0000 C   0  0  0  0  0  0  0  0  0  0  0  0
   -0.8364    2.4487    0.0000 C   0  0  0  0  0  0  0  0  0  0  0  0
   -1.8364    2.4487    0.0000 C   0  0  0  0  0  0  0  0  0  0  0  0
   -2.3364    3.3147    0.0000 C   0  0  0  0  0  0  0  0  0  0  0  0
   -1.8364    4.1808    0.0000 C   0  0  0  0  0  0  0  0  0  0  0  0
   -2.3364    5.0468    0.0000 O   0  0  0  0  0  0  0  0  0  0  0  0
   -0.8364    4.1808    0.0000 C   0  0  0  0  0  0  0  0  0  0  0  0
   -0.3364    3.3147    0.0000 C   0  0  0  0  0  0  0  0  0  0  0  0
    0.6581    1.4781    0.0000 N   0  0  0  0  0  0  0  0  0  0  0  0
    1.3272    2.2213    0.0000 C   0  0  0  0  0  0  0  0  0  0  0  0
    2.3054    2.0134    0.0000 C   0  0  0  0  0  0  0  0  0  0  0  0
    2.6144    1.0623    0.0000 C   0  0  0  0  0  0  0  0  0  0  0  0
    3.5926    0.8544    0.0000 C   0  0  0  0  0  0  0  0  0  0  0  0
    4.2617    1.5976    0.0000 C   0  0  0  0  0  0  0  0  0  0  0  0
    5.2398    1.3896    0.0000 O   0  0  0  0  0  0  0  0  0  0  0  0
    5.9090    2.1328    0.0000 C   0  0  0  0  0  0  0  0  0  0  0  0
    6.8871    1.9249    0.0000 C   0  0  0  0  0  0  0  0  0  0  0  0
    7.5562    2.6680    0.0000 N   0  0  0  0  0  0  0  0  0  0  0  0
    8.5161    2.3876    0.0000 C   0  0  0  0  0  0  0  0  0  0  0  0
    9.3338    2.9632    0.0000 C   0  0  0  0  0  0  0  0  0  0  0  0
    9.3936    3.9614    0.0000 C   0  0  0  0  0  0  0  0  0  0  0  0
    8.6505    4.6306    0.0000 C   0  0  0  0  0  0  0  0  0  0  0  0
    7.6640    4.4667    0.0000 C   0  0  0  0  0  0  0  0  0  0  0  0
    7.1770    3.5933    0.0000 C   0  0  0  0  0  0  0  0  0  0  0  0
    3.9527    2.5486    0.0000 C   0  0  0  0  0  0  0  0  0  0  0  0
    2.9745    2.7565    0.0000 C   0  0  0  0  0  0  0  0  0  0  0  0
    0.8660    0.5000    0.0000 C   0  0  0  0  0  0  0  0  0  0  0  0
    1.7321   -0.0000    0.0000 C   0  0  0  0  0  0  0  0  0  0  0  0
    1.7321   -1.0000    0.0000 C   0  0  0  0  0  0  0  0  0  0  0  0
    0.8660   -1.5000    0.0000 C   0  0  0  0  0  0  0  0  0  0  0  0
    0.8660   -2.5000    0.0000 O   0  0  0  0  0  0  0  0  0  0  0  0
   -0.0000   -1.0000    0.0000 C   0  0  0  0  0  0  0  0  0  0  0  0
    0.0000    0.0000    0.0000 C   0  0  0  0  0  0  0  0  0  0  0  0
  1  2  1  0  0  0  0
  2 35  1  0  0  0  0
  2  3  2  0  0  0  0
  3  4  1  0  0  0  0
  3 11  1  0  0  0  0
  4 10  1  0  0  0  0
  4  5  2  0  0  0  0
  5  6  1  0  0  0  0
  6  7  2  0  0  0  0
  7  8  1  0  0  0  0
  7  9  1  0  0  0  0
  9 10  2  0  0  0  0
 11 12  1  0  0  0  0
 11 29  1  0  0  0  0
 12 13  1  0  0  0  0
 13 28  1  0  0  0  0
 13 14  2  0  0  0  0
 14 15  1  0  0  0  0
 15 16  2  0  0  0  0
 16 17  1  0  0  0  0
 16 27  1  0  0  0  0
 17 18  1  0  0  0  0
 18 19  1  0  0  0  0
 19 20  1  0  0  0  0
 20 26  1  0  0  0  0
 20 21  1  0  0  0  0
 21 22  1  0  0  0  0
 22 23  1  0  0  0  0
 23 24  1  0  0  0  0
 24 25  1  0  0  0  0
 25 26  1  0  0  0  0
 27 28  2  0  0  0  0
 29 35  1  0  0  0  0
 29 30  2  0  0  0  0
 30 31  1  0  0  0  0
 31 32  2  0  0  0  0
 32 33  1  0  0  0  0
 32 34  1  0  0  0  0
 34 35  2  0  0  0  0
M  END
$$$$

 OpenBabel10082008492D

 31 33  0  0  0  0  0  0  0  0999 V2000
   -4.0000    4.1962    0.0000 C   0  0  0  0  0  0  0  0  0  0  0  0
   -4.5000    3.3301    0.0000 C   0  0  0  0  0  0  0  0  0  0  0  0
   -4.0000    2.4641    0.0000 C   0  0  0  0  0  0  0  0  0  0  0  0
   -4.5000    1.5981    0.0000 N   0  0  0  0  0  0  0  0  0  0  0  0
   -5.5000    1.5981    0.0000 C   0  0  0  0  0  0  0  0  0  0  0  0
   -6.0000    0.7321    0.0000 C   0  0  0  0  0  0  0  0  0  0  0  0
   -7.0000    0.7321    0.0000 O   0  0  0  0  0  0  0  0  0  0  0  0
   -5.5000   -0.1340    0.0000 N   0  0  0  0  0  0  0  0  0  0  0  0
   -4.5000   -0.1340    0.0000 C   0  0  0  0  0  0  0  0  0  0  0  0
   -4.0000   -1.0000    0.0000 C   0  0  0  0  0  0  0  0  0  0  0  0
   -3.0000   -1.0000    0.0000 C   0  0  0  0  0  0  0  0  0  0  0  0
   -2.5000   -0.1340    0.0000 C   0  0  0  0  0  0  0  0  0  0  0  0
   -1.5000   -0.1340    0.0000 C   0  0  0  0  0  0  0  0  0  0  0  0
   -1.0000   -1.0000    0.0000 C   0  0  0  0  0  0  0  0  0  0  0  0
    0.0000   -1.0000    0.0000 S   0  0  0  0  0  0  0  0  0  0  0  0
    0.0000   -2.0000    0.0000 O   0  0  0  0  0  0  0  0  0  0  0  0
    1.0000   -1.0000    0.0000 O   0  0  0  0  0  0  0  0  0  0  0  0
    0.0000   -0.0000    0.0000 N   0  0  0  0  0  0  0  0  0  0  0  0
    0.8660    0.5000    0.0000 C   0  0  0  0  0  0  0  0  0  0  0  0
    1.7321    0.0000    0.0000 O   0  0  0  0  0  0  0  0  0  0  0  0
    0.8660    1.5000    0.0000 N   0  0  0  0  0  0  0  0  0  0  0  0
    1.7321    2.0000    0.0000 C   0  0  0  0  0  0  0  0  0  0  0  0
    1.7321    3.0000    0.0000 C   0  0  0  0  0  0  0  0  0  0  0  0
    2.5981    3.5000    0.0000 C   0  0  0  0  0  0  0  0  0  0  0  0
    3.4641    3.0000    0.0000 C   0  0  0  0  0  0  0  0  0  0  0  0
    3.4641    2.0000    0.0000 C   0  0  0  0  0  0  0  0  0  0  0  0
    2.5981    1.5000    0.0000 C   0  0  0  0  0  0  0  0  0  0  0  0
   -1.5000   -1.8660    0.0000 C   0  0  0  0  0  0  0  0  0  0  0  0
   -2.5000   -1.8660    0.0000 C   0  0  0  0  0  0  0  0  0  0  0  0
   -6.0000    2.4641    0.0000 C   0  0  0  0  0  0  0  0  0  0  0  0
   -5.5000    3.3301    0.0000 N   0  0  0  0  0  0  0  0  0  0  0  0
  1  2  1  0  0  0  0
  2 31  1  0  0  0  0
  2  3  2  0  0  0  0
  3  4  1  0  0  0  0
  4  5  2  0  0  0  0
  5  6  1  0  0  0  0
  5 30  1  0  0  0  0
  6  7  2  0  0  0  0
  6  8  1  0  0  0  0
  8  9  1  0  0  0  0
  9 10  1  0  0  0  0
 10 11  1  0  0  0  0
 11 29  1  0  0  0  0
 11 12  2  0  0  0  0
 12 13  1  0  0  0  0
 13 14  2  0  0  0  0
 14 15  1  0  0  0  0
 14 28  1  0  0  0  0
 15 16  2  0  0  0  0
 15 17  2  0  0  0  0
 15 18  1  0  0  0  0
 18 19  1  0  0  0  0
 19 20  2  0  0  0  0
 19 21  1  0  0  0  0
 21 22  1  0  0  0  0
 22 27  1  0  0  0  0
 22 23  1  0  0  0  0
 23 24  1  0  0  0  0
 24 25  1  0  0  0  0
 25 26  1  0  0  0  0
 26 27  1  0  0  0  0
 28 29  2  0  0  0  0
 30 31  2  0  0  0  0
M  END
$$$$

 OpenBabel10082008492D

 11 11  0  0  0  0  0  0  0  0999 V2000
    1.7321   -0.0000    0.0000 N   0  0  0  0  0  0  0  0  0  0  0  0
    0.8660   -0.5000    0.0000 C   0  0  0  0  0  0  0  0  0  0  0  0
    0.8660   -1.5000    0.0000 C   0  0  0  0  0  0  0  0  0  0  0  0
    0.0000   -2.0000    0.0000 C   0  0  0  0  0  0  0  0  0  0  0  0
   -0.8660   -1.5000    0.0000 C   0  0  0  0  0  0  0  0  0  0  0  0
   -1.7321   -2.0000    0.0000 C   0  0  0  0  0  0  0  0  0  0  0  0
   -2.5981   -1.5000    0.0000 O   0  0  0  0  0  0  0  0  0  0  0  0
   -1.7321   -3.0000    0.0000 O   0  0  0  0  0  0  0  0  0  0  0  0
   -0.8660   -0.5000    0.0000 C   0  0  0  0  0  0  0  0  0  0  0  0
   -1.7321   -0.0000    0.0000 O   0  0  0  0  0  0  0  0  0  0  0  0
    0.0000   -0.0000    0.0000 C   0  0  0  0  0  0  0  0  0  0  0  0
  1  2  1  0  0  0  0
  2 11  1  0  0  0  0
  2  3  2  0  0  0  0
  3  4  1  0  0  0  0
  4  5  2  0  0  0  0
  5  6  1  0  0  0  0
  5  9  1  0  0  0  0
  6  7  2  0  0  0  0
  6  8  1  0  0  0  0
  9 10  1  0  0  0  0
  9 11  2  0  0  0  0
M  END
$$$$

 OpenBabel10082008492D

 29 31  0  0  1  0  0  0  0  0999 V2000
    2.0981   -1.3660    0.0000 N   0  0  0  0  0  0  0  0  0  0  0  0
    2.5981   -0.5000    0.0000 C   0  0  1  0  0  0  0  0  0  0  0  0
    3.0981   -1.3660    0.0000 H   0  0  0  0  0  0  0  0  0  0  0  0
    3.4641   -0.0000    0.0000 C   0  0  0  0  0  0  0  0  0  0  0  0
    4.3301   -0.5000    0.0000 C   0  0  0  0  0  0  0  0  0  0  0  0
    4.3301   -1.5000    0.0000 O   0  0  0  0  0  0  0  0  0  0  0  0
    5.1962   -0.0000    0.0000 N   0  0  0  0  0  0  0  0  0  0  0  0
    6.0622   -0.5000    0.0000 C   0  0  0  0  0  0  0  0  0  0  0  0
    6.9282   -0.0000    0.0000 C   0  0  0  0  0  0  0  0  0  0  0  0
    6.9282    1.0000    0.0000 N   0  0  0  0  0  0  0  0  0  0  0  0
    6.0622    1.5000    0.0000 C   0  0  0  0  0  0  0  0  0  0  0  0
    6.2701    2.4781    0.0000 N   0  0  0  0  0  0  0  0  0  0  0  0
    7.2646    2.5827    0.0000 N   0  0  0  0  0  0  0  0  0  0  0  0
    7.6713    1.6691    0.0000 C   0  0  0  0  0  0  0  0  0  0  0  0
    8.6495    1.4612    0.0000 C   0  0  0  0  0  0  0  0  0  0  0  0
    9.6006    1.7702    0.0000 F   0  0  0  0  0  0  0  0  0  0  0  0
    8.8574    2.4394    0.0000 F   0  0  0  0  0  0  0  0  0  0  0  0
    8.9585    0.5102    0.0000 F   0  0  0  0  0  0  0  0  0  0  0  0
    5.1962    1.0000    0.0000 C   0  0  0  0  0  0  0  0  0  0  0  0
    1.7321   -0.0000    0.0000 C   0  0  0  0  0  0  0  0  0  0  0  0
    0.8660   -0.5000    0.0000 C   0  0  0  0  0  0  0  0  0  0  0  0
    0.8660   -1.5000    0.0000 C   0  0  0  0  0  0  0  0  0  0  0  0
    0.0000   -2.0000    0.0000 C   0  0  0  0  0  0  0  0  0  0  0  0
    0.0000   -3.0000    0.0000 F   0  0  0  0  0  0  0  0  0  0  0  0
   -0.8660   -1.5000    0.0000 C   0  0  0  0  0  0  0  0  0  0  0  0
   -1.7321   -2.0000    0.0000 F   0  0  0  0  0  0  0  0  0  0  0  0
   -0.8660   -0.5000    0.0000 C   0  0  0  0  0  0  0  0  0  0  0  0
    0.0000    0.0000    0.0000 C   0  0  0  0  0  0  0  0  0  0  0  0
   -0.0000    1.0000    0.0000 F   0  0  0  0  0  0  0  0  0  0  0  0
  1  2  1  0  0  0  0
  2  3  1  1  0  0  0
  2  4  1  0  0  0  0
  2 20  1  0  0  0  0
  4  5  1  0  0  0  0
  5  6  2  0  0  0  0
  5  7  1  0  0  0  0
  7 19  1  0  0  0  0
  7  8  1  0  0  0  0
  8  9  1  0  0  0  0
  9 10  1  0  0  0  0
 10 14  1  0  0  0  0
 10 11  1  0  0  0  0
 11 12  2  0  0  0  0
 11 19  1  0  0  0  0
 12 13  1  0  0  0  0
 13 14  2  0  0  0  0
 14 15  1  0  0  0  0
 15 16  1  0  0  0  0
 15 17  1  0  0  0  0
 15 18  1  0  0  0  0
 20 21  1  0  0  0  0
 21 28  1  0  0  0  0
 21 22  2  0  0  0  0
 22 23  1  0  0  0  0
 23 24  1  0  0  0  0
 23 25  2  0  0  0  0
 25 26  1  0  0  0  0
 25 27  1  0  0  0  0
 27 28  2  0  0  0  0
 28 29  1  0  0  0  0
M  END
$$$$

 OpenBabel10082008492D

 34 36  0  0  1  0  0  0  0  0999 V2000
   -0.5258   -2.4071    0.0000 C   0  0  0  0  0  0  0  0  0  0  0  0
   -1.3918   -2.9071    0.0000 C   0  0  0  0  0  0  0  0  0  0  0  0
   -2.2578   -2.4071    0.0000 O   0  0  0  0  0  0  0  0  0  0  0  0
   -3.1239   -2.9071    0.0000 C   0  0  0  0  0  0  0  0  0  0  0  0
   -3.1239   -3.9071    0.0000 O   0  0  0  0  0  0  0  0  0  0  0  0
   -3.9899   -2.4071    0.0000 C   0  0  2  0  0  0  0  0  0  0  0  0
   -4.4899   -3.2731    0.0000 H   0  0  0  0  0  0  0  0  0  0  0  0
   -4.8559   -1.9071    0.0000 C   0  0  0  0  0  0  0  0  0  0  0  0
   -5.7219   -2.4071    0.0000 C   0  0  0  0  0  0  0  0  0  0  0  0
   -6.5880   -1.9071    0.0000 C   0  0  0  0  0  0  0  0  0  0  0  0
   -7.4540   -2.4071    0.0000 C   0  0  0  0  0  0  0  0  0  0  0  0
   -8.3200   -1.9071    0.0000 C   0  0  0  0  0  0  0  0  0  0  0  0
   -8.3200   -0.9071    0.0000 C   0  0  0  0  0  0  0  0  0  0  0  0
   -7.4540   -0.4071    0.0000 C   0  0  0  0  0  0  0  0  0  0  0  0
   -6.5880   -0.9071    0.0000 C   0  0  0  0  0  0  0  0  0  0  0  0
   -3.4899   -1.5411    0.0000 N   0  0  0  0  0  0  0  0  0  0  0  0
   -3.9899   -0.6750    0.0000 C   0  0  1  0  0  0  0  0  0  0  0  0
   -4.8559   -1.1750    0.0000 H   0  0  0  0  0  0  0  0  0  0  0  0
   -4.8559   -0.1750    0.0000 C   0  0  0  0  0  0  0  0  0  0  0  0
   -3.4899    0.1910    0.0000 C   0  0  0  0  0  0  0  0  0  0  0  0
   -3.9899    1.0570    0.0000 O   0  0  0  0  0  0  0  0  0  0  0  0
   -2.4899    0.1910    0.0000 N   0  0  0  0  0  0  0  0  0  0  0  0
   -1.9021   -0.6180    0.0000 C   0  0  0  0  0  0  0  0  0  0  0  0
   -0.9511   -0.3090    0.0000 C   0  0  0  0  0  0  0  0  0  0  0  0
   -0.9511    0.6910    0.0000 C   0  0  0  0  0  0  0  0  0  0  0  0
   -1.9021    1.0000    0.0000 C   0  0  1  0  0  0  0  0  0  0  0  0
   -2.6453    1.6691    0.0000 H   0  0  0  0  0  0  0  0  0  0  0  0
   -1.6942    1.9781    0.0000 C   0  0  0  0  0  0  0  0  0  0  0  0
   -2.4373    2.6473    0.0000 O   0  0  0  0  0  0  0  0  0  0  0  0
   -0.7431    2.2872    0.0000 O   0  0  0  0  0  0  0  0  0  0  0  0
   -0.9511   -1.3090    0.0000 S   0  0  0  0  0  0  0  0  0  0  0  0
    0.0000   -1.6180    0.0000 C   0  0  0  0  0  0  0  0  0  0  0  0
    0.5878   -0.8090    0.0000 C   0  0  0  0  0  0  0  0  0  0  0  0
    0.0000   -0.0000    0.0000 S   0  0  0  0  0  0  0  0  0  0  0  0
  1  2  1  0  0  0  0
  2  3  1  0  0  0  0
  3  4  1  0  0  0  0
  4  5  2  0  0  0  0
  4  6  1  0  0  0  0
  6  7  1  1  0  0  0
  6  8  1  0  0  0  0
  6 16  1  0  0  0  0
  8  9  1  0  0  0  0
  9 10  1  0  0  0  0
 10 15  1  0  0  0  0
 10 11  2  0  0  0  0
 11 12  1  0  0  0  0
 12 13  2  0  0  0  0
 13 14  1  0  0  0  0
 14 15  2  0  0  0  0
 16 17  1  0  0  0  0
 17 18  1  6  0  0  0
 17 19  1  0  0  0  0
 17 20  1  0  0  0  0
 20 21  2  0  0  0  0
 20 22  1  0  0  0  0
 22 26  1  0  0  0  0
 22 23  1  0  0  0  0
 23 24  1  0  0  0  0
 24 34  1  0  0  0  0
 24 25  1  0  0  0  0
 24 31  1  0  0  0  0
 25 26  1  0  0  0  0
 26 27  1  1  0  0  0
 26 28  1  0  0  0  0
 28 29  2  0  0  0  0
 28 30  1  0  0  0  0
 31 32  1  0  0  0  0
 32 33  1  0  0  0  0
 33 34  1  0  0  0  0
M  END
$$$$

 OpenBabel10082008492D

 23 26  0  0  0  0  0  0  0  0999 V2000
   -1.1781    1.2697    0.0000 C   0  0  0  0  0  0  0  0  0  0  0  0
   -0.2225    0.9749    0.0000 N   0  0  0  0  0  0  0  0  0  0  0  0
    0.5105    1.6551    0.0000 C   0  0  0  0  0  0  0  0  0  0  0  0
    1.4661    1.3603    0.0000 C   0  0  0  0  0  0  0  0  0  0  0  0
    1.6886    0.3854    0.0000 N   0  0  0  0  0  0  0  0  0  0  0  0
    2.6442    0.0907    0.0000 C   0  0  0  0  0  0  0  0  0  0  0  0
    3.3244    0.8237    0.0000 N   0  0  0  0  0  0  0  0  0  0  0  0
    4.3216    0.7490    0.0000 C   0  0  0  0  0  0  0  0  0  0  0  0
    4.7555    1.6500    0.0000 C   0  0  0  0  0  0  0  0  0  0  0  0
    5.7527    1.7247    0.0000 C   0  0  0  0  0  0  0  0  0  0  0  0
    6.3160    0.8984    0.0000 C   0  0  0  0  0  0  0  0  0  0  0  0
    5.8821   -0.0025    0.0000 C   0  0  0  0  0  0  0  0  0  0  0  0
    4.8849   -0.0773    0.0000 C   0  0  0  0  0  0  0  0  0  0  0  0
    4.5901   -1.0328    0.0000 O   0  0  0  0  0  0  0  0  0  0  0  0
    3.6593   -1.3982    0.0000 C   0  0  0  0  0  0  0  0  0  0  0  0
    3.6593   -2.3982    0.0000 C   0  0  0  0  0  0  0  0  0  0  0  0
    2.7932   -2.8982    0.0000 C   0  0  0  0  0  0  0  0  0  0  0  0
    1.9272   -2.3982    0.0000 C   0  0  0  0  0  0  0  0  0  0  0  0
    1.0612   -2.8982    0.0000 Cl  0  0  0  0  0  0  0  0  0  0  0  0
    1.9272   -1.3982    0.0000 C   0  0  0  0  0  0  0  0  0  0  0  0
    2.7932   -0.8982    0.0000 C   0  0  0  0  0  0  0  0  0  0  0  0
    0.9556   -0.2948    0.0000 C   0  0  0  0  0  0  0  0  0  0  0  0
    0.0000   -0.0000    0.0000 C   0  0  0  0  0  0  0  0  0  0  0  0
  1  2  1  0  0  0  0
  2 23  1  0  0  0  0
  2  3  1  0  0  0  0
  3  4  1  0  0  0  0
  4  5  1  0  0  0  0
  5  6  1  0  0  0  0
  5 22  1  0  0  0  0
  6 21  1  0  0  0  0
  6  7  2  0  0  0  0
  7  8  1  0  0  0  0
  8 13  1  0  0  0  0
  8  9  2  0  0  0  0
  9 10  1  0  0  0  0
 10 11  2  0  0  0  0
 11 12  1  0  0  0  0
 12 13  2  0  0  0  0
 13 14  1  0  0  0  0
 14 15  1  0  0  0  0
 15 21  1  0  0  0  0
 15 16  2  0  0  0  0
 16 17  1  0  0  0  0
 17 18  2  0  0  0  0
 18 19  1  0  0  0  0
 18 20  1  0  0  0  0
 20 21  2  0  0  0  0
 22 23  1  0  0  0  0
M  END
$$$$

 OpenBabel10082008492D

 22 24  0  0  1  0  0  0  0  0999 V2000
   -1.7321   -3.0000    0.0000 C   0  0  0  0  0  0  0  0  0  0  0  0
   -0.8660   -3.5000    0.0000 C   0  0  0  0  0  0  0  0  0  0  0  0
   -0.0000   -3.0000    0.0000 N   0  0  0  0  0  0  0  0  0  0  0  0
    0.8660   -3.5000    0.0000 C   0  0  0  0  0  0  0  0  0  0  0  0
    1.7321   -3.0000    0.0000 C   0  0  0  0  0  0  0  0  0  0  0  0
   -0.0000   -2.0000    0.0000 C   0  0  3  0  0  0  0  0  0  0  0  0
    0.8660   -1.5000    0.0000 C   0  0  0  0  0  0  0  0  0  0  0  0
   -0.8660   -1.5000    0.0000 C   0  0  0  0  0  0  0  0  0  0  0  0
   -0.8660   -0.5000    0.0000 N   0  0  0  0  0  0  0  0  0  0  0  0
   -1.7321    0.0000    0.0000 C   0  0  0  0  0  0  0  0  0  0  0  0
   -2.5981   -0.5000    0.0000 C   0  0  0  0  0  0  0  0  0  0  0  0
   -3.4641   -0.0000    0.0000 C   0  0  0  0  0  0  0  0  0  0  0  0
   -3.4641    1.0000    0.0000 C   0  0  0  0  0  0  0  0  0  0  0  0
   -2.5981    1.5000    0.0000 C   0  0  0  0  0  0  0  0  0  0  0  0
   -1.7321    1.0000    0.0000 C   0  0  0  0  0  0  0  0  0  0  0  0
   -0.8660    1.5000    0.0000 S   0  0  0  0  0  0  0  0  0  0  0  0
   -0.0000    1.0000    0.0000 C   0  0  0  0  0  0  0  0  0  0  0  0
    0.8660    1.5000    0.0000 C   0  0  0  0  0  0  0  0  0  0  0  0
    1.7321    1.0000    0.0000 C   0  0  0  0  0  0  0  0  0  0  0  0
    1.7321    0.0000    0.0000 C   0  0  0  0  0  0  0  0  0  0  0  0
    0.8660   -0.5000    0.0000 C   0  0  0  0  0  0  0  0  0  0  0  0
    0.0000   -0.0000    0.0000 C   0  0  0  0  0  0  0  0  0  0  0  0
  1  2  1  0  0  0  0
  2  3  1  0  0  0  0
  3  4  1  0  0  0  0
  3  6  1  0  0  0  0
  4  5  1  0  0  0  0
  6  7  1  0  0  0  0
  6  8  1  0  0  0  0
  8  9  1  0  0  0  0
  9 22  1  0  0  0  0
  9 10  1  0  0  0  0
 10 15  1  0  0  0  0
 10 11  2  0  0  0  0
 11 12  1  0  0  0  0
 12 13  2  0  0  0  0
 13 14  1  0  0  0  0
 14 15  2  0  0  0  0
 15 16  1  0  0  0  0
 16 17  1  0  0  0  0
 17 22  1  0  0  0  0
 17 18  2  0  0  0  0
 18 19  1  0  0  0  0
 19 20  2  0  0  0  0
 20 21  1  0  0  0  0
 21 22  2  0  0  0  0
M  END
$$$$

 OpenBabel10082008492D

 73 81  0  0  1  0  0  0  0  0999 V2000
   -2.2050    0.7152    0.0000 C   0  0  0  0  0  0  0  0  0  0  0  0
   -1.2509    0.4596    0.0000 O   0  0  0  0  0  0  0  0  0  0  0  0
   -0.5524    1.1581    0.0000 C   0  0  0  0  0  0  0  0  0  0  0  0
    0.4018    0.9024    0.0000 C   0  0  1  0  0  0  0  0  0  0  0  0
    0.8422    1.7866    0.0000 H   0  0  0  0  0  0  0  0  0  0  0  0
    1.3842    0.7992    0.0000 C   0  0  0  0  0  0  0  0  0  0  0  0
    1.5895   -0.1671    0.0000 C   0  0  1  0  0  0  0  0  0  0  0  0
    2.1702   -0.9662    0.0000 H   0  0  0  0  0  0  0  0  0  0  0  0
    2.5719   -0.0638    0.0000 C   0  0  0  0  0  0  0  0  0  0  0  0
    3.2329   -0.7979    0.0000 N   0  0  0  0  0  0  0  0  0  0  0  0
    4.1353   -0.3961    0.0000 C   0  0  0  0  0  0  0  0  0  0  0  0
    4.9908   -0.8900    0.0000 C   0  0  0  0  0  0  0  0  0  0  0  0
    4.9908   -1.8778    0.0000 C   0  0  0  0  0  0  0  0  0  0  0  0
    5.8462   -2.3717    0.0000 C   0  0  0  0  0  0  0  0  0  0  0  0
    6.7017   -1.8778    0.0000 C   0  0  0  0  0  0  0  0  0  0  0  0
    6.7017   -0.8900    0.0000 C   0  0  0  0  0  0  0  0  0  0  0  0
    5.8462   -0.3961    0.0000 C   0  0  0  0  0  0  0  0  0  0  0  0
    7.5572   -0.3961    0.0000 C   0  0  0  0  0  0  0  0  0  0  0  0
    8.4126   -0.8900    0.0000 O   0  0  0  0  0  0  0  0  0  0  0  0
    8.4126   -1.8778    0.0000 C   0  0  0  0  0  0  0  0  0  0  0  0
    9.2681   -2.3717    0.0000 C   0  0  0  0  0  0  0  0  0  0  0  0
    9.2681   -3.3595    0.0000 C   0  0  0  0  0  0  0  0  0  0  0  0
    8.4126   -3.8534    0.0000 C   0  0  0  0  0  0  0  0  0  0  0  0
    8.4126   -4.8412    0.0000 C   0  0  0  0  0  0  0  0  0  0  0  0
    9.2681   -5.3351    0.0000 C   0  0  0  0  0  0  0  0  0  0  0  0
   10.1236   -4.8412    0.0000 C   0  0  0  0  0  0  0  0  0  0  0  0
   11.0630   -5.1465    0.0000 N   0  0  0  0  0  0  0  0  0  0  0  0
   11.6436   -4.3473    0.0000 C   0  0  0  0  0  0  0  0  0  0  0  0
   12.6314   -4.3473    0.0000 C   0  0  2  0  0  0  0  0  0  0  0  0
   12.8280   -3.3793    0.0000 H   0  0  0  0  0  0  0  0  0  0  0  0
   13.6071   -4.1928    0.0000 C   0  0  0  0  0  0  0  0  0  0  0  0
   14.0555   -5.0730    0.0000 C   0  0  0  0  0  0  0  0  0  0  0  0
   13.3571   -5.7714    0.0000 C   0  0  2  0  0  0  0  0  0  0  0  0
   13.0031   -6.6936    0.0000 H   0  0  0  0  0  0  0  0  0  0  0  0
   13.9787   -6.5391    0.0000 C   0  0  0  0  0  0  0  0  0  0  0  0
   12.4769   -5.3230    0.0000 N   0  0  0  0  0  0  0  0  0  0  0  0
   10.7166   -6.2199    0.0000 C   0  0  0  0  0  0  0  0  0  0  0  0
    9.8882   -5.6819    0.0000 O   0  0  0  0  0  0  0  0  0  0  0  0
   10.6649   -7.2063    0.0000 C   0  0  1  0  0  0  0  0  0  0  0  0
   11.6514   -7.2580    0.0000 H   0  0  0  0  0  0  0  0  0  0  0  0
   10.6132   -8.1928    0.0000 N   0  0  0  0  0  0  0  0  0  0  0  0
   11.4417   -8.7308    0.0000 C   0  0  0  0  0  0  0  0  0  0  0  0
   11.3900   -9.7172    0.0000 O   0  0  0  0  0  0  0  0  0  0  0  0
   12.3218   -8.2823    0.0000 O   0  0  0  0  0  0  0  0  0  0  0  0
   13.1503   -8.8203    0.0000 C   0  0  0  0  0  0  0  0  0  0  0  0
    9.6785   -7.1546    0.0000 C   0  0  0  0  0  0  0  0  0  0  0  0
    9.1405   -7.9831    0.0000 C   0  0  0  0  0  0  0  0  0  0  0  0
    9.2300   -6.2745    0.0000 C   0  0  0  0  0  0  0  0  0  0  0  0
   11.0630   -3.5482    0.0000 N   0  0  0  0  0  0  0  0  0  0  0  0
   11.3683   -2.6087    0.0000 H   0  0  0  0  0  0  0  0  0  0  0  0
   10.1236   -3.8534    0.0000 C   0  0  0  0  0  0  0  0  0  0  0  0
    7.5572   -3.3595    0.0000 C   0  0  0  0  0  0  0  0  0  0  0  0
    7.5572   -2.3717    0.0000 C   0  0  0  0  0  0  0  0  0  0  0  0
    4.0321    0.5863    0.0000 C   0  0  0  0  0  0  0  0  0  0  0  0
    3.0658    0.7916    0.0000 N   0  0  0  0  0  0  0  0  0  0  0  0
    2.6641    1.6941    0.0000 H   0  0  0  0  0  0  0  0  0  0  0  0
    0.7341   -0.6610    0.0000 N   0  0  0  0  0  0  0  0  0  0  0  0
    0.6308   -1.6434    0.0000 C   0  0  0  0  0  0  0  0  0  0  0  0
    1.4300   -2.2240    0.0000 O   0  0  0  0  0  0  0  0  0  0  0  0
   -0.2716   -2.0451    0.0000 C   0  0  2  0  0  0  0  0  0  0  0  0
   -0.6734   -1.1427    0.0000 H   0  0  0  0  0  0  0  0  0  0  0  0
   -1.1740   -2.4469    0.0000 N   0  0  0  0  0  0  0  0  0  0  0  0
   -1.9731   -1.8663    0.0000 C   0  0  0  0  0  0  0  0  0  0  0  0
   -1.8699   -0.8839    0.0000 O   0  0  0  0  0  0  0  0  0  0  0  0
   -2.8755   -2.2681    0.0000 O   0  0  0  0  0  0  0  0  0  0  0  0
   -3.6747   -1.6875    0.0000 C   0  0  0  0  0  0  0  0  0  0  0  0
    0.1302   -2.9475    0.0000 C   0  0  0  0  0  0  0  0  0  0  0  0
    1.1126   -3.0508    0.0000 C   0  0  0  0  0  0  0  0  0  0  0  0
    1.5144   -3.9532    0.0000 C   0  0  0  0  0  0  0  0  0  0  0  0
    0.9338   -4.7524    0.0000 C   0  0  0  0  0  0  0  0  0  0  0  0
   -0.0486   -4.6491    0.0000 C   0  0  0  0  0  0  0  0  0  0  0  0
   -0.4504   -3.7467    0.0000 C   0  0  0  0  0  0  0  0  0  0  0  0
    0.0000   -0.0000    0.0000 C   0  0  0  0  0  0  0  0  0  0  0  0
  1  2  1  0  0  0  0
  2  3  1  0  0  0  0
  3  4  1  0  0  0  0
  4  5  1  6  0  0  0
  4 73  1  0  0  0  0
  4  6  1  0  0  0  0
  6  7  1  0  0  0  0
  7  8  1  6  0  0  0
  7  9  1  0  0  0  0
  7 57  1  0  0  0  0
  9 55  1  0  0  0  0
  9 10  2  0  0  0  0
 10 11  1  0  0  0  0
 11 12  1  0  0  0  0
 11 54  2  0  0  0  0
 12 17  1  0  0  0  0
 12 13  2  0  0  0  0
 13 14  1  0  0  0  0
 14 15  2  0  0  0  0
 15 53  1  0  0  0  0
 15 16  1  0  0  0  0
 16 17  2  0  0  0  0
 16 18  1  0  0  0  0
 18 19  1  0  0  0  0
 19 20  1  0  0  0  0
 20 53  1  0  0  0  0
 20 21  2  0  0  0  0
 21 22  1  0  0  0  0
 22 51  1  0  0  0  0
 22 23  2  0  0  0  0
 23 24  1  0  0  0  0
 23 52  1  0  0  0  0
 24 25  2  0  0  0  0
 25 26  1  0  0  0  0
 26 51  2  0  0  0  0
 26 27  1  0  0  0  0
 27 28  2  0  0  0  0
 28 29  1  0  0  0  0
 28 49  1  0  0  0  0
 29 30  1  1  0  0  0
 29 36  1  0  0  0  0
 29 31  1  0  0  0  0
 31 32  1  0  0  0  0
 32 33  1  0  0  0  0
 33 34  1  1  0  0  0
 33 35  1  0  0  0  0
 33 36  1  0  0  0  0
 36 37  1  0  0  0  0
 37 38  2  0  0  0  0
 37 39  1  0  0  0  0
 39 40  1  6  0  0  0
 39 41  1  0  0  0  0
 39 46  1  0  0  0  0
 41 42  1  0  0  0  0
 42 43  2  0  0  0  0
 42 44  1  0  0  0  0
 44 45  1  0  0  0  0
 46 47  1  0  0  0  0
 46 48  1  0  0  0  0
 49 50  1  0  0  0  0
 49 51  1  0  0  0  0
 52 53  2  0  0  0  0
 54 55  1  0  0  0  0
 55 56  1  0  0  0  0
 57 58  1  0  0  0  0
 57 73  1  0  0  0  0
 58 59  2  0  0  0  0
 58 60  1  0  0  0  0
 60 61  1  6  0  0  0
 60 62  1  0  0  0  0
 60 67  1  0  0  0  0
 62 63  1  0  0  0  0
 63 64  2  0  0  0  0
 63 65  1  0  0  0  0
 65 66  1  0  0  0  0
 67 72  1  0  0  0  0
 67 68  2  0  0  0  0
 68 69  1  0  0  0  0
 69 70  2  0  0  0  0
 70 71  1  0  0  0  0
 71 72  2  0  0  0  0
M  END
$$$$

 OpenBabel10082008492D

 14 15  0  0  0  0  0  0  0  0999 V2000
    1.7321   -0.0000    0.0000 C   0  0  0  0  0  0  0  0  0  0  0  0
    0.8660   -0.5000    0.0000 C   0  0  0  0  0  0  0  0  0  0  0  0
    0.8660   -1.5000    0.0000 N   0  0  0  0  0  0  0  0  0  0  0  0
    0.0000   -2.0000    0.0000 S   0  0  0  0  0  0  0  0  0  0  0  0
   -0.5000   -2.8660    0.0000 O   0  0  0  0  0  0  0  0  0  0  0  0
    0.5000   -2.8660    0.0000 O   0  0  0  0  0  0  0  0  0  0  0  0
   -0.8660   -1.5000    0.0000 C   0  0  0  0  0  0  0  0  0  0  0  0
   -1.7321   -2.0000    0.0000 C   0  0  0  0  0  0  0  0  0  0  0  0
   -2.5981   -1.5000    0.0000 C   0  0  0  0  0  0  0  0  0  0  0  0
   -3.4641   -2.0000    0.0000 Cl  0  0  0  0  0  0  0  0  0  0  0  0
   -2.5981   -0.5000    0.0000 C   0  0  0  0  0  0  0  0  0  0  0  0
   -1.7321   -0.0000    0.0000 C   0  0  0  0  0  0  0  0  0  0  0  0
   -0.8660   -0.5000    0.0000 C   0  0  0  0  0  0  0  0  0  0  0  0
    0.0000   -0.0000    0.0000 N   0  0  0  0  0  0  0  0  0  0  0  0
  1  2  1  0  0  0  0
  2 14  1  0  0  0  0
  2  3  2  0  0  0  0
  3  4  1  0  0  0  0
  4  5  2  0  0  0  0
  4  6  2  0  0  0  0
  4  7  1  0  0  0  0
  7 13  1  0  0  0  0
  7  8  2  0  0  0  0
  8  9  1  0  0  0  0
  9 10  1  0  0  0  0
  9 11  2  0  0  0  0
 11 12  1  0  0  0  0
 12 13  2  0  0  0  0
 13 14  1  0  0  0  0
M  END
$$$$

 OpenBabel10082008492D

 22 22  0  0  0  0  0  0  0  0999 V2000
    6.0622   -1.5000    0.0000 C   0  0  0  0  0  0  0  0  0  0  0  0
    6.0622   -0.5000    0.0000 O   0  0  0  0  0  0  0  0  0  0  0  0
    5.1962   -0.0000    0.0000 C   0  0  0  0  0  0  0  0  0  0  0  0
    4.3301   -0.5000    0.0000 C   0  0  0  0  0  0  0  0  0  0  0  0
    3.4641   -0.0000    0.0000 C   0  0  0  0  0  0  0  0  0  0  0  0
    2.5981   -0.5000    0.0000 C   0  0  0  0  0  0  0  0  0  0  0  0
    1.7321   -0.0000    0.0000 C   0  0  0  0  0  0  0  0  0  0  0  0
    1.7321    1.0000    0.0000 N   0  0  0  0  0  0  0  0  0  0  0  0
    2.5981    1.5000    0.0000 O   0  0  0  0  0  0  0  0  0  0  0  0
    3.4641    1.0000    0.0000 C   0  0  0  0  0  0  0  0  0  0  0  0
    4.3301    1.5000    0.0000 C   0  0  0  0  0  0  0  0  0  0  0  0
    5.1962    1.0000    0.0000 N   0  0  0  0  0  0  0  0  0  0  0  0
    0.8660   -0.5000    0.0000 C   0  0  0  0  0  0  0  0  0  0  0  0
    0.8660   -1.5000    0.0000 C   0  0  0  0  0  0  0  0  0  0  0  0
    0.0000   -2.0000    0.0000 C   0  0  0  0  0  0  0  0  0  0  0  0
   -0.8660   -1.5000    0.0000 C   0  0  0  0  0  0  0  0  0  0  0  0
   -1.7321   -2.0000    0.0000 C   0  0  0  0  0  0  0  0  0  0  0  0
   -2.2321   -2.8660    0.0000 F   0  0  0  0  0  0  0  0  0  0  0  0
   -1.2321   -2.8660    0.0000 F   0  0  0  0  0  0  0  0  0  0  0  0
   -2.5981   -1.5000    0.0000 F   0  0  0  0  0  0  0  0  0  0  0  0
   -0.8660   -0.5000    0.0000 C   0  0  0  0  0  0  0  0  0  0  0  0
   -0.0000   -0.0000    0.0000 C   0  0  0  0  0  0  0  0  0  0  0  0
  1  2  1  0  0  0  0
  2  3  1  0  0  0  0
  3  4  1  0  0  0  0
  4  5  1  0  0  0  0
  5  6  1  0  0  0  0
  6  7  1  0  0  0  0
  7  8  2  0  0  0  0
  7 13  1  0  0  0  0
  8  9  1  0  0  0  0
  9 10  1  0  0  0  0
 10 11  1  0  0  0  0
 11 12  1  0  0  0  0
 13 22  1  0  0  0  0
 13 14  2  0  0  0  0
 14 15  1  0  0  0  0
 15 16  2  0  0  0  0
 16 17  1  0  0  0  0
 16 21  1  0  0  0  0
 17 18  1  0  0  0  0
 17 19  1  0  0  0  0
 17 20  1  0  0  0  0
 21 22  2  0  0  0  0
M  END
$$$$

 OpenBabel10082008492D

 33 37  0  0  0  0  0  0  0  0999 V2000
   -0.8660    2.5000    0.0000 O   0  0  0  0  0  0  0  0  0  0  0  0
   -0.8660    1.5000    0.0000 C   0  0  0  0  0  0  0  0  0  0  0  0
   -1.7321    1.0000    0.0000 C   0  0  0  0  0  0  0  0  0  0  0  0
   -1.7321    0.0000    0.0000 C   0  0  0  0  0  0  0  0  0  0  0  0
   -2.5981   -0.5000    0.0000 C   0  0  0  0  0  0  0  0  0  0  0  0
   -2.5981   -1.5000    0.0000 C   0  0  0  0  0  0  0  0  0  0  0  0
   -3.4641   -2.0000    0.0000 C   0  0  0  0  0  0  0  0  0  0  0  0
   -3.4641   -3.0000    0.0000 N   0  0  0  0  0  0  0  0  0  0  0  0
   -4.3301   -3.5000    0.0000 N   0  0  0  0  0  0  0  0  0  0  0  0
   -4.3301   -4.5000    0.0000 H   0  0  0  0  0  0  0  0  0  0  0  0
   -5.1962   -3.0000    0.0000 C   0  0  0  0  0  0  0  0  0  0  0  0
   -6.0622   -3.5000    0.0000 O   0  0  0  0  0  0  0  0  0  0  0  0
   -5.1962   -2.0000    0.0000 C   0  0  0  0  0  0  0  0  0  0  0  0
   -6.0622   -1.5000    0.0000 C   0  0  0  0  0  0  0  0  0  0  0  0
   -6.0622   -0.5000    0.0000 C   0  0  0  0  0  0  0  0  0  0  0  0
   -5.1962   -0.0000    0.0000 C   0  0  0  0  0  0  0  0  0  0  0  0
   -4.3301   -0.5000    0.0000 C   0  0  0  0  0  0  0  0  0  0  0  0
   -4.3301   -1.5000    0.0000 C   0  0  0  0  0  0  0  0  0  0  0  0
   -3.4641   -0.0000    0.0000 C   0  0  0  0  0  0  0  0  0  0  0  0
   -3.4641    1.0000    0.0000 C   0  0  0  0  0  0  0  0  0  0  0  0
   -2.5981    1.5000    0.0000 C   0  0  0  0  0  0  0  0  0  0  0  0
   -2.5981    2.5000    0.0000 F   0  0  0  0  0  0  0  0  0  0  0  0
   -0.0000    1.0000    0.0000 N   0  0  0  0  0  0  0  0  0  0  0  0
    0.8660    1.5000    0.0000 C   0  0  0  0  0  0  0  0  0  0  0  0
    1.7321    1.0000    0.0000 C   0  0  0  0  0  0  0  0  0  0  0  0
    1.7321    0.0000    0.0000 N   0  0  0  0  0  0  0  0  0  0  0  0
    2.5981   -0.5000    0.0000 C   0  0  0  0  0  0  0  0  0  0  0  0
    2.5981   -1.5000    0.0000 O   0  0  0  0  0  0  0  0  0  0  0  0
    3.4641    0.0000    0.0000 C   0  0  0  0  0  0  0  0  0  0  0  0
    3.9641    0.8660    0.0000 C   0  0  0  0  0  0  0  0  0  0  0  0
    4.4641    0.0000    0.0000 C   0  0  0  0  0  0  0  0  0  0  0  0
    0.8660   -0.5000    0.0000 C   0  0  0  0  0  0  0  0  0  0  0  0
    0.0000   -0.0000    0.0000 C   0  0  0  0  0  0  0  0  0  0  0  0
  1  2  2  0  0  0  0
  2  3  1  0  0  0  0
  2 23  1  0  0  0  0
  3 21  1  0  0  0  0
  3  4  2  0  0  0  0
  4  5  1  0  0  0  0
  5  6  1  0  0  0  0
  5 19  2  0  0  0  0
  6  7  1  0  0  0  0
  7 18  1  0  0  0  0
  7  8  2  0  0  0  0
  8  9  1  0  0  0  0
  9 10  1  0  0  0  0
  9 11  1  0  0  0  0
 11 12  2  0  0  0  0
 11 13  1  0  0  0  0
 13 18  1  0  0  0  0
 13 14  2  0  0  0  0
 14 15  1  0  0  0  0
 15 16  2  0  0  0  0
 16 17  1  0  0  0  0
 17 18  2  0  0  0  0
 19 20  1  0  0  0  0
 20 21  2  0  0  0  0
 21 22  1  0  0  0  0
 23 33  1  0  0  0  0
 23 24  1  0  0  0  0
 24 25  1  0  0  0  0
 25 26  1  0  0  0  0
 26 27  1  0  0  0  0
 26 32  1  0  0  0  0
 27 28  2  0  0  0  0
 27 29  1  0  0  0  0
 29 31  1  0  0  0  0
 29 30  1  0  0  0  0
 30 31  1  0  0  0  0
 32 33  1  0  0  0  0
M  END
$$$$

 OpenBabel10082008492D

 40 43  0  0  0  0  0  0  0  0999 V2000
    2.5981   -1.5000    0.0000 C   0  0  0  0  0  0  0  0  0  0  0  0
    2.5981   -0.5000    0.0000 C   0  0  0  0  0  0  0  0  0  0  0  0
    1.7321   -0.0000    0.0000 O   0  0  0  0  0  0  0  0  0  0  0  0
    0.8660   -0.5000    0.0000 C   0  0  0  0  0  0  0  0  0  0  0  0
    0.8660   -1.5000    0.0000 C   0  0  0  0  0  0  0  0  0  0  0  0
   -0.0000   -2.0000    0.0000 C   0  0  0  0  0  0  0  0  0  0  0  0
   -0.0000   -3.0000    0.0000 N   0  0  0  0  0  0  0  0  0  0  0  0
   -0.8660   -3.5000    0.0000 C   0  0  0  0  0  0  0  0  0  0  0  0
   -1.7321   -3.0000    0.0000 C   0  0  0  0  0  0  0  0  0  0  0  0
   -2.5981   -3.5000    0.0000 C   0  0  0  0  0  0  0  0  0  0  0  0
   -3.4641   -4.0000    0.0000 N   0  0  0  0  0  0  0  0  0  0  0  0
   -1.7321   -2.0000    0.0000 C   0  0  0  0  0  0  0  0  0  0  0  0
   -2.5981   -1.5000    0.0000 N   0  0  0  0  0  0  0  0  0  0  0  0
   -3.4641   -2.0000    0.0000 C   0  0  0  0  0  0  0  0  0  0  0  0
   -3.4641   -3.0000    0.0000 C   0  0  0  0  0  0  0  0  0  0  0  0
   -4.3301   -3.5000    0.0000 C   0  0  0  0  0  0  0  0  0  0  0  0
   -5.1962   -3.0000    0.0000 C   0  0  0  0  0  0  0  0  0  0  0  0
   -6.0622   -3.5000    0.0000 O   0  0  0  0  0  0  0  0  0  0  0  0
   -6.9282   -3.0000    0.0000 C   0  0  0  0  0  0  0  0  0  0  0  0
   -7.7942   -3.5000    0.0000 C   0  0  0  0  0  0  0  0  0  0  0  0
   -7.7942   -4.5000    0.0000 C   0  0  0  0  0  0  0  0  0  0  0  0
   -8.6603   -5.0000    0.0000 C   0  0  0  0  0  0  0  0  0  0  0  0
   -9.5263   -4.5000    0.0000 C   0  0  0  0  0  0  0  0  0  0  0  0
   -9.5263   -3.5000    0.0000 C   0  0  0  0  0  0  0  0  0  0  0  0
   -8.6603   -3.0000    0.0000 N   0  0  0  0  0  0  0  0  0  0  0  0
   -5.1962   -2.0000    0.0000 C   0  0  0  0  0  0  0  0  0  0  0  0
   -6.0622   -1.5000    0.0000 Cl  0  0  0  0  0  0  0  0  0  0  0  0
   -4.3301   -1.5000    0.0000 C   0  0  0  0  0  0  0  0  0  0  0  0
   -0.8660   -1.5000    0.0000 C   0  0  0  0  0  0  0  0  0  0  0  0
   -0.8660   -0.5000    0.0000 C   0  0  0  0  0  0  0  0  0  0  0  0
    0.0000    0.0000    0.0000 C   0  0  0  0  0  0  0  0  0  0  0  0
   -0.0000    1.0000    0.0000 N   0  0  0  0  0  0  0  0  0  0  0  0
   -0.8660    1.5000    0.0000 C   0  0  0  0  0  0  0  0  0  0  0  0
   -0.8660    2.5000    0.0000 O   0  0  0  0  0  0  0  0  0  0  0  0
   -1.7321    1.0000    0.0000 C   0  0  0  0  0  0  0  0  0  0  0  0
   -2.5981    1.5000    0.0000 C   0  0  0  0  0  0  0  0  0  0  0  0
   -3.4641    1.0000    0.0000 C   0  0  0  0  0  0  0  0  0  0  0  0
   -4.3301    1.5000    0.0000 N   0  0  0  0  0  0  0  0  0  0  0  0
   -4.3301    2.5000    0.0000 C   0  0  0  0  0  0  0  0  0  0  0  0
   -5.1962    1.0000    0.0000 C   0  0  0  0  0  0  0  0  0  0  0  0
  1  2  1  0  0  0  0
  2  3  1  0  0  0  0
  3  4  1  0  0  0  0
  4 31  1  0  0  0  0
  4  5  2  0  0  0  0
  5  6  1  0  0  0  0
  6 29  1  0  0  0  0
  6  7  2  0  0  0  0
  7  8  1  0  0  0  0
  8  9  2  0  0  0  0
  9 10  1  0  0  0  0
  9 12  1  0  0  0  0
 10 11  3  0  0  0  0
 12 13  1  0  0  0  0
 12 29  2  0  0  0  0
 13 14  1  0  0  0  0
 14 28  1  0  0  0  0
 14 15  2  0  0  0  0
 15 16  1  0  0  0  0
 16 17  2  0  0  0  0
 17 18  1  0  0  0  0
 17 26  1  0  0  0  0
 18 19  1  0  0  0  0
 19 20  1  0  0  0  0
 20 25  1  0  0  0  0
 20 21  2  0  0  0  0
 21 22  1  0  0  0  0
 22 23  2  0  0  0  0
 23 24  1  0  0  0  0
 24 25  2  0  0  0  0
 26 27  1  0  0  0  0
 26 28  2  0  0  0  0
 29 30  1  0  0  0  0
 30 31  2  0  0  0  0
 31 32  1  0  0  0  0
 32 33  1  0  0  0  0
 33 34  2  0  0  0  0
 33 35  1  0  0  0  0
 35 36  2  0  0  0  0
 36 37  1  0  0  0  0
 37 38  1  0  0  0  0
 38 39  1  0  0  0  0
 38 40  1  0  0  0  0
M  END
$$$$

 OpenBabel10082008492D

 19 20  0  0  0  0  0  0  0  0999 V2000
   -0.8660   -4.5000    0.0000 N   0  0  0  0  0  0  0  0  0  0  0  0
    0.0000   -4.0000    0.0000 C   0  0  0  0  0  0  0  0  0  0  0  0
    0.8660   -4.5000    0.0000 O   0  0  0  0  0  0  0  0  0  0  0  0
    0.0000   -3.0000    0.0000 C   0  0  0  0  0  0  0  0  0  0  0  0
   -0.8660   -2.5000    0.0000 S   0  3  1  0  0  0  0  0  0  0  0  0
   -1.7321   -3.0000    0.0000 O   0  5  0  0  0  0  0  0  0  0  0  0
   -0.8660   -1.5000    0.0000 C   0  0  0  0  0  0  0  0  0  0  0  0
   -1.7321   -1.0000    0.0000 C   0  0  0  0  0  0  0  0  0  0  0  0
   -1.7321   -0.0000    0.0000 C   0  0  0  0  0  0  0  0  0  0  0  0
   -2.5981    0.5000    0.0000 C   0  0  0  0  0  0  0  0  0  0  0  0
   -3.4641   -0.0000    0.0000 C   0  0  0  0  0  0  0  0  0  0  0  0
   -3.4641   -1.0000    0.0000 C   0  0  0  0  0  0  0  0  0  0  0  0
   -2.5981   -1.5000    0.0000 C   0  0  0  0  0  0  0  0  0  0  0  0
    0.0000   -1.0000    0.0000 C   0  0  0  0  0  0  0  0  0  0  0  0
    0.8660   -1.5000    0.0000 C   0  0  0  0  0  0  0  0  0  0  0  0
    1.7321   -1.0000    0.0000 C   0  0  0  0  0  0  0  0  0  0  0  0
    1.7321    0.0000    0.0000 C   0  0  0  0  0  0  0  0  0  0  0  0
    0.8660    0.5000    0.0000 C   0  0  0  0  0  0  0  0  0  0  0  0
    0.0000    0.0000    0.0000 C   0  0  0  0  0  0  0  0  0  0  0  0
  1  2  1  0  0  0  0
  2  3  2  0  0  0  0
  2  4  1  0  0  0  0
  5  4  1  1  0  0  0
  5  6  1  0  0  0  0
  5  7  1  0  0  0  0
  7  8  1  0  0  0  0
  7 14  1  0  0  0  0
  8 13  1  0  0  0  0
  8  9  2  0  0  0  0
  9 10  1  0  0  0  0
 10 11  2  0  0  0  0
 11 12  1  0  0  0  0
 12 13  2  0  0  0  0
 14 19  1  0  0  0  0
 14 15  2  0  0  0  0
 15 16  1  0  0  0  0
 16 17  2  0  0  0  0
 17 18  1  0  0  0  0
 18 19  2  0  0  0  0
M  CHG  2   5   1   6  -1
M  END
$$$$

 OpenBabel10082008492D

 22 23  0  0  0  0  0  0  0  0999 V2000
    3.4641   -0.0000    0.0000 C   0  0  0  0  0  0  0  0  0  0  0  0
    3.4641    1.0000    0.0000 C   0  0  0  0  0  0  0  0  0  0  0  0
    2.5981    1.5000    0.0000 O   0  0  0  0  0  0  0  0  0  0  0  0
    1.7321    1.0000    0.0000 C   0  0  0  0  0  0  0  0  0  0  0  0
    0.8660    1.5000    0.0000 O   0  0  0  0  0  0  0  0  0  0  0  0
    1.7321   -0.0000    0.0000 N   0  0  0  0  0  0  0  0  0  0  0  0
    0.8660   -0.5000    0.0000 C   0  0  0  0  0  0  0  0  0  0  0  0
    0.8660   -1.5000    0.0000 C   0  0  0  0  0  0  0  0  0  0  0  0
    0.0000   -2.0000    0.0000 C   0  0  0  0  0  0  0  0  0  0  0  0
   -0.8660   -1.5000    0.0000 C   0  0  0  0  0  0  0  0  0  0  0  0
   -1.7321   -2.0000    0.0000 N   0  0  0  0  0  0  0  0  0  0  0  0
   -2.5981   -1.5000    0.0000 C   0  0  0  0  0  0  0  0  0  0  0  0
   -3.4641   -2.0000    0.0000 C   0  0  0  0  0  0  0  0  0  0  0  0
   -3.4641   -3.0000    0.0000 C   0  0  0  0  0  0  0  0  0  0  0  0
   -4.3301   -3.5000    0.0000 C   0  0  0  0  0  0  0  0  0  0  0  0
   -5.1962   -3.0000    0.0000 C   0  0  0  0  0  0  0  0  0  0  0  0
   -6.0622   -3.5000    0.0000 F   0  0  0  0  0  0  0  0  0  0  0  0
   -5.1962   -2.0000    0.0000 C   0  0  0  0  0  0  0  0  0  0  0  0
   -4.3301   -1.5000    0.0000 C   0  0  0  0  0  0  0  0  0  0  0  0
   -0.8660   -0.5000    0.0000 C   0  0  0  0  0  0  0  0  0  0  0  0
   -0.0000   -0.0000    0.0000 C   0  0  0  0  0  0  0  0  0  0  0  0
   -0.0000    1.0000    0.0000 N   0  0  0  0  0  0  0  0  0  0  0  0
  1  2  1  0  0  0  0
  2  3  1  0  0  0  0
  3  4  1  0  0  0  0
  4  5  2  0  0  0  0
  4  6  1  0  0  0  0
  6  7  1  0  0  0  0
  7 21  1  0  0  0  0
  7  8  2  0  0  0  0
  8  9  1  0  0  0  0
  9 10  2  0  0  0  0
 10 11  1  0  0  0  0
 10 20  1  0  0  0  0
 11 12  1  0  0  0  0
 12 13  1  0  0  0  0
 13 19  1  0  0  0  0
 13 14  2  0  0  0  0
 14 15  1  0  0  0  0
 15 16  2  0  0  0  0
 16 17  1  0  0  0  0
 16 18  1  0  0  0  0
 18 19  2  0  0  0  0
 20 21  2  0  0  0  0
 21 22  1  0  0  0  0
M  END
$$$$

 OpenBabel10082008492D

 28 31  0  0  1  0  0  0  0  0999 V2000
   -0.8660    1.5000    0.0000 O   0  0  0  0  0  0  0  0  0  0  0  0
   -0.0000    1.0000    0.0000 C   0  0  0  0  0  0  0  0  0  0  0  0
    0.8660    1.5000    0.0000 C   0  0  0  0  0  0  0  0  0  0  0  0
    0.8660    2.5000    0.0000 O   0  0  0  0  0  0  0  0  0  0  0  0
    1.7321    1.0000    0.0000 C   0  0  0  0  0  0  0  0  0  0  0  0
    2.5981    1.5000    0.0000 C   0  0  1  0  0  0  0  0  0  0  0  0
    2.4676    2.4914    0.0000 H   0  0  0  0  0  0  0  0  0  0  0  0
    3.3052    2.2071    0.0000 C   0  0  0  0  0  0  0  0  0  0  0  0
    4.2711    1.9483    0.0000 C   0  0  0  0  0  0  0  0  0  0  0  0
    4.5299    0.9824    0.0000 C   0  0  2  0  0  0  0  0  0  0  0  0
    5.2370    0.2753    0.0000 H   0  0  0  0  0  0  0  0  0  0  0  0
    5.4959    1.2412    0.0000 C   0  0  0  0  0  0  0  0  0  0  0  0
    5.7547    2.2071    0.0000 C   0  0  0  0  0  0  0  0  0  0  0  0
    6.7206    2.4659    0.0000 C   0  0  0  0  0  0  0  0  0  0  0  0
    7.4277    1.7588    0.0000 C   0  0  0  0  0  0  0  0  0  0  0  0
    8.3936    2.0176    0.0000 Cl  0  0  0  0  0  0  0  0  0  0  0  0
    7.1689    0.7929    0.0000 C   0  0  0  0  0  0  0  0  0  0  0  0
    6.2030    0.5341    0.0000 C   0  0  0  0  0  0  0  0  0  0  0  0
    3.8228    0.2753    0.0000 C   0  0  0  0  0  0  0  0  0  0  0  0
    2.8569    0.5341    0.0000 C   0  0  0  0  0  0  0  0  0  0  0  0
    1.7321    0.0000    0.0000 C   0  0  0  0  0  0  0  0  0  0  0  0
    2.5981   -0.5000    0.0000 O   0  0  0  0  0  0  0  0  0  0  0  0
    0.8660   -0.5000    0.0000 C   0  0  0  0  0  0  0  0  0  0  0  0
    0.8660   -1.5000    0.0000 C   0  0  0  0  0  0  0  0  0  0  0  0
    0.0000   -2.0000    0.0000 C   0  0  0  0  0  0  0  0  0  0  0  0
   -0.8660   -1.5000    0.0000 C   0  0  0  0  0  0  0  0  0  0  0  0
   -0.8660   -0.5000    0.0000 C   0  0  0  0  0  0  0  0  0  0  0  0
    0.0000   -0.0000    0.0000 C   0  0  0  0  0  0  0  0  0  0  0  0
  1  2  2  0  0  0  0
  2 28  1  0  0  0  0
  2  3  1  0  0  0  0
  3  4  1  0  0  0  0
  3  5  2  0  0  0  0
  5  6  1  0  0  0  0
  5 21  1  0  0  0  0
  6  7  1  6  0  0  0
  6 20  1  0  0  0  0
  6  8  1  0  0  0  0
  8  9  1  0  0  0  0
  9 10  1  0  0  0  0
 10 11  1  1  0  0  0
 10 12  1  0  0  0  0
 10 19  1  0  0  0  0
 12 18  1  0  0  0  0
 12 13  2  0  0  0  0
 13 14  1  0  0  0  0
 14 15  2  0  0  0  0
 15 16  1  0  0  0  0
 15 17  1  0  0  0  0
 17 18  2  0  0  0  0
 19 20  1  0  0  0  0
 21 22  2  0  0  0  0
 21 23  1  0  0  0  0
 23 28  1  0  0  0  0
 23 24  2  0  0  0  0
 24 25  1  0  0  0  0
 25 26  2  0  0  0  0
 26 27  1  0  0  0  0
 27 28  2  0  0  0  0
M  END
$$$$

 OpenBabel10082008492D

 23 25  0  0  0  0  0  0  0  0999 V2000
   -2.5981   -1.5000    0.0000 C   0  0  0  0  0  0  0  0  0  0  0  0
   -1.7321   -2.0000    0.0000 C   0  0  0  0  0  0  0  0  0  0  0  0
   -0.8660   -1.5000    0.0000 N   0  0  0  0  0  0  0  0  0  0  0  0
    0.0000   -2.0000    0.0000 C   0  0  0  0  0  0  0  0  0  0  0  0
    0.0000   -3.0000    0.0000 C   0  0  0  0  0  0  0  0  0  0  0  0
    0.8660   -1.5000    0.0000 O   0  0  0  0  0  0  0  0  0  0  0  0
   -0.8660   -0.5000    0.0000 C   0  0  0  0  0  0  0  0  0  0  0  0
   -1.7321   -0.0000    0.0000 C   0  0  0  0  0  0  0  0  0  0  0  0
   -1.7321    1.0000    0.0000 C   0  0  0  0  0  0  0  0  0  0  0  0
   -0.8660    1.5000    0.0000 C   0  0  0  0  0  0  0  0  0  0  0  0
    0.0000    1.0000    0.0000 C   0  0  0  0  0  0  0  0  0  0  0  0
    0.8660    1.5000    0.0000 C   0  0  0  0  0  0  0  0  0  0  0  0
    0.8660    2.5000    0.0000 C   0  0  0  0  0  0  0  0  0  0  0  0
    1.7321    3.0000    0.0000 C   0  0  0  0  0  0  0  0  0  0  0  0
    2.5981    2.5000    0.0000 N   0  0  0  0  0  0  0  0  0  0  0  0
    2.5981    1.5000    0.0000 C   0  0  0  0  0  0  0  0  0  0  0  0
    3.3412    0.8309    0.0000 C   0  0  0  0  0  0  0  0  0  0  0  0
    4.3194    1.0388    0.0000 C   0  0  0  0  0  0  0  0  0  0  0  0
    5.2975    1.2467    0.0000 N   0  0  0  0  0  0  0  0  0  0  0  0
    2.9345   -0.0827    0.0000 C   0  0  0  0  0  0  0  0  0  0  0  0
    1.9400    0.0219    0.0000 N   0  0  0  0  0  0  0  0  0  0  0  0
    1.7321    1.0000    0.0000 N   0  0  0  0  0  0  0  0  0  0  0  0
    0.0000   -0.0000    0.0000 C   0  0  0  0  0  0  0  0  0  0  0  0
  1  2  1  0  0  0  0
  2  3  1  0  0  0  0
  3  4  1  0  0  0  0
  3  7  1  0  0  0  0
  4  5  1  0  0  0  0
  4  6  2  0  0  0  0
  7 23  1  0  0  0  0
  7  8  2  0  0  0  0
  8  9  1  0  0  0  0
  9 10  2  0  0  0  0
 10 11  1  0  0  0  0
 11 12  1  0  0  0  0
 11 23  2  0  0  0  0
 12 22  1  0  0  0  0
 12 13  2  0  0  0  0
 13 14  1  0  0  0  0
 14 15  2  0  0  0  0
 15 16  1  0  0  0  0
 16 22  1  0  0  0  0
 16 17  2  0  0  0  0
 17 18  1  0  0  0  0
 17 20  1  0  0  0  0
 18 19  3  0  0  0  0
 20 21  2  0  0  0  0
 21 22  1  0  0  0  0
M  END
$$$$

 OpenBabel10082008492D

 23 24  0  0  0  0  0  0  0  0999 V2000
    0.7978    8.2448    0.0000 C   0  0  0  0  0  0  0  0  0  0  0  0
   -0.1804    8.0369    0.0000 C   0  0  0  0  0  0  0  0  0  0  0  0
   -0.4894    7.0858    0.0000 C   0  0  0  0  0  0  0  0  0  0  0  0
    0.1797    6.3427    0.0000 C   0  0  0  0  0  0  0  0  0  0  0  0
   -0.1293    5.3916    0.0000 C   0  0  0  0  0  0  0  0  0  0  0  0
    0.5398    4.6485    0.0000 N   0  0  0  0  0  0  0  0  0  0  0  0
    0.2308    3.6974    0.0000 C   0  0  0  0  0  0  0  0  0  0  0  0
   -0.7473    3.4895    0.0000 N   0  0  0  0  0  0  0  0  0  0  0  0
    0.9000    2.9543    0.0000 N   0  0  0  0  0  0  0  0  0  0  0  0
    0.5909    2.0032    0.0000 N   0  0  0  0  0  0  0  0  0  0  0  0
    1.2601    1.2601    0.0000 C   0  0  0  0  0  0  0  0  0  0  0  0
    0.9511    0.3090    0.0000 C   0  0  0  0  0  0  0  0  0  0  0  0
    1.5388   -0.5000    0.0000 C   0  0  0  0  0  0  0  0  0  0  0  0
    0.9511   -1.3090    0.0000 N   0  0  0  0  0  0  0  0  0  0  0  0
    1.2601   -2.2601    0.0000 H   0  0  0  0  0  0  0  0  0  0  0  0
   -0.0000   -1.0000    0.0000 C   0  0  0  0  0  0  0  0  0  0  0  0
   -0.8660   -1.5000    0.0000 C   0  0  0  0  0  0  0  0  0  0  0  0
   -1.7321   -1.0000    0.0000 C   0  0  0  0  0  0  0  0  0  0  0  0
   -1.7321    0.0000    0.0000 C   0  0  0  0  0  0  0  0  0  0  0  0
   -2.5981    0.5000    0.0000 O   0  0  0  0  0  0  0  0  0  0  0  0
   -3.4641    0.0000    0.0000 C   0  0  0  0  0  0  0  0  0  0  0  0
   -0.8660    0.5000    0.0000 C   0  0  0  0  0  0  0  0  0  0  0  0
    0.0000   -0.0000    0.0000 C   0  0  0  0  0  0  0  0  0  0  0  0
  1  2  1  0  0  0  0
  2  3  1  0  0  0  0
  3  4  1  0  0  0  0
  4  5  1  0  0  0  0
  5  6  1  0  0  0  0
  6  7  1  0  0  0  0
  7  8  2  0  0  0  0
  7  9  1  0  0  0  0
  9 10  1  0  0  0  0
 10 11  2  0  0  0  0
 11 12  1  0  0  0  0
 12 23  1  0  0  0  0
 12 13  2  0  0  0  0
 13 14  1  0  0  0  0
 14 15  1  0  0  0  0
 14 16  1  0  0  0  0
 16 23  1  0  0  0  0
 16 17  2  0  0  0  0
 17 18  1  0  0  0  0
 18 19  2  0  0  0  0
 19 20  1  0  0  0  0
 19 22  1  0  0  0  0
 20 21  1  0  0  0  0
 22 23  2  0  0  0  0
M  END
$$$$

 OpenBabel10082008492D

 14 15  0  0  1  0  0  0  0  0999 V2000
   -1.4095    3.0344    0.0000 C   0  0  0  0  0  0  0  0  0  0  0  0
   -0.9556    2.1434    0.0000 C   0  0  0  0  0  0  0  0  0  0  0  0
   -0.5016    1.2524    0.0000 C   0  0  0  0  0  0  0  0  0  0  0  0
    0.4971    1.2000    0.0000 N   0  0  0  0  0  0  0  0  0  0  0  0
    0.9511    0.3090    0.0000 C   0  0  2  0  0  0  0  0  0  0  0  0
    1.9146    0.5767    0.0000 H   0  0  0  0  0  0  0  0  0  0  0  0
    1.5388   -0.5000    0.0000 C   0  0  0  0  0  0  0  0  0  0  0  0
    0.9511   -1.3090    0.0000 C   0  0  0  0  0  0  0  0  0  0  0  0
    0.0000   -1.0000    0.0000 C   0  0  0  0  0  0  0  0  0  0  0  0
   -0.8660   -1.5000    0.0000 C   0  0  0  0  0  0  0  0  0  0  0  0
   -1.7321   -1.0000    0.0000 C   0  0  0  0  0  0  0  0  0  0  0  0
   -1.7321   -0.0000    0.0000 C   0  0  0  0  0  0  0  0  0  0  0  0
   -0.8660    0.5000    0.0000 C   0  0  0  0  0  0  0  0  0  0  0  0
    0.0000   -0.0000    0.0000 C   0  0  0  0  0  0  0  0  0  0  0  0
  1  2  3  0  0  0  0
  2  3  1  0  0  0  0
  3  4  1  0  0  0  0
  4  5  1  0  0  0  0
  5  6  1  1  0  0  0
  5 14  1  0  0  0  0
  5  7  1  0  0  0  0
  7  8  1  0  0  0  0
  8  9  1  0  0  0  0
  9 14  1  0  0  0  0
  9 10  2  0  0  0  0
 10 11  1  0  0  0  0
 11 12  2  0  0  0  0
 12 13  1  0  0  0  0
 13 14  2  0  0  0  0
M  END
$$$$

 OpenBabel10082008492D

 10 10  0  0  0  0  0  0  0  0999 V2000
    1.7321   -0.0000    0.0000 C   0  0  0  0  0  0  0  0  0  0  0  0
    0.8660   -0.5000    0.0000 C   0  0  0  0  0  0  0  0  0  0  0  0
    0.8660   -1.5000    0.0000 C   0  0  0  0  0  0  0  0  0  0  0  0
    1.7321   -2.0000    0.0000 O   0  0  0  0  0  0  0  0  0  0  0  0
    0.0000   -2.0000    0.0000 C   0  0  0  0  0  0  0  0  0  0  0  0
    0.0000   -3.0000    0.0000 O   0  0  0  0  0  0  0  0  0  0  0  0
   -0.8660   -1.5000    0.0000 C   0  0  0  0  0  0  0  0  0  0  0  0
   -0.8660   -0.5000    0.0000 C   0  0  0  0  0  0  0  0  0  0  0  0
    0.0000   -0.0000    0.0000 N   0  0  0  0  0  0  0  0  0  0  0  0
   -0.0000    1.0000    0.0000 C   0  0  0  0  0  0  0  0  0  0  0  0
  1  2  1  0  0  0  0
  2  9  1  0  0  0  0
  2  3  2  0  0  0  0
  3  4  1  0  0  0  0
  3  5  1  0  0  0  0
  5  6  2  0  0  0  0
  5  7  1  0  0  0  0
  7  8  2  0  0  0  0
  8  9  1  0  0  0  0
  9 10  1  0  0  0  0
M  END
$$$$

 OpenBabel10082008492D

 28 29  0  0  0  0  0  0  0  0999 V2000
   -2.5000    5.0622    0.0000 C   0  0  0  0  0  0  0  0  0  0  0  0
   -3.0000    4.1962    0.0000 C   0  0  0  0  0  0  0  0  0  0  0  0
   -2.5000    3.3301    0.0000 C   0  0  0  0  0  0  0  0  0  0  0  0
   -3.0000    2.4641    0.0000 C   0  0  0  0  0  0  0  0  0  0  0  0
   -2.5000    1.5981    0.0000 C   0  0  0  0  0  0  0  0  0  0  0  0
   -3.0000    0.7321    0.0000 C   0  0  0  0  0  0  0  0  0  0  0  0
   -4.0000    2.4641    0.0000 C   0  0  0  0  0  0  0  0  0  0  0  0
   -4.5000    3.3301    0.0000 C   0  0  0  0  0  0  0  0  0  0  0  0
   -5.5000    3.3301    0.0000 C   0  0  0  0  0  0  0  0  0  0  0  0
   -6.0000    2.4641    0.0000 C   0  0  0  0  0  0  0  0  0  0  0  0
   -7.0000    2.4641    0.0000 O   0  0  0  0  0  0  0  0  0  0  0  0
   -7.5000    3.3301    0.0000 P   0  0  0  0  0  0  0  0  0  0  0  0
   -8.3660    2.8301    0.0000 O   0  0  0  0  0  0  0  0  0  0  0  0
   -8.0000    4.1962    0.0000 O   0  0  0  0  0  0  0  0  0  0  0  0
   -6.6340    3.8301    0.0000 O   0  0  0  0  0  0  0  0  0  0  0  0
   -5.5000    1.5981    0.0000 C   0  0  0  0  0  0  0  0  0  0  0  0
   -4.5000    1.5981    0.0000 C   0  0  0  0  0  0  0  0  0  0  0  0
   -1.5000    3.3301    0.0000 C   0  0  0  0  0  0  0  0  0  0  0  0
   -1.0000    4.1962    0.0000 C   0  0  0  0  0  0  0  0  0  0  0  0
    0.0000    4.1962    0.0000 C   0  0  0  0  0  0  0  0  0  0  0  0
    0.5000    3.3301    0.0000 C   0  0  0  0  0  0  0  0  0  0  0  0
    1.5000    3.3301    0.0000 O   0  0  0  0  0  0  0  0  0  0  0  0
    2.0000    2.4641    0.0000 P   0  0  0  0  0  0  0  0  0  0  0  0
    1.1340    1.9641    0.0000 O   0  0  0  0  0  0  0  0  0  0  0  0
    2.5000    1.5981    0.0000 O   0  0  0  0  0  0  0  0  0  0  0  0
    2.8660    2.9641    0.0000 O   0  0  0  0  0  0  0  0  0  0  0  0
    0.0000    2.4641    0.0000 C   0  0  0  0  0  0  0  0  0  0  0  0
   -1.0000    2.4641    0.0000 C   0  0  0  0  0  0  0  0  0  0  0  0
  1  2  1  0  0  0  0
  2  3  1  0  0  0  0
  3  4  2  0  0  0  0
  3 18  1  0  0  0  0
  4  5  1  0  0  0  0
  4  7  1  0  0  0  0
  5  6  1  0  0  0  0
  7 17  1  0  0  0  0
  7  8  2  0  0  0  0
  8  9  1  0  0  0  0
  9 10  2  0  0  0  0
 10 11  1  0  0  0  0
 10 16  1  0  0  0  0
 11 12  1  0  0  0  0
 12 13  2  0  0  0  0
 12 14  1  0  0  0  0
 12 15  1  0  0  0  0
 16 17  2  0  0  0  0
 18 28  1  0  0  0  0
 18 19  2  0  0  0  0
 19 20  1  0  0  0  0
 20 21  2  0  0  0  0
 21 22  1  0  0  0  0
 21 27  1  0  0  0  0
 22 23  1  0  0  0  0
 23 24  2  0  0  0  0
 23 25  1  0  0  0  0
 23 26  1  0  0  0  0
 27 28  2  0  0  0  0
M  END
$$$$

 OpenBabel10082008492D

 17 17  0  0  1  0  0  0  0  0999 V2000
    2.2957   -0.4868    0.0000 C   0  0  0  0  0  0  0  0  0  0  0  0
    1.3080   -0.3303    0.0000 C   0  0  0  0  0  0  0  0  0  0  0  0
    0.6787   -1.1075    0.0000 C   0  0  0  0  0  0  0  0  0  0  0  0
   -0.3090   -0.9511    0.0000 C   0  0  2  0  0  0  0  0  0  0  0  0
   -0.6588   -1.8879    0.0000 H   0  0  0  0  0  0  0  0  0  0  0  0
   -1.3090   -0.9511    0.0000 C   0  0  0  0  0  0  0  0  0  0  0  0
   -1.6180   -0.0000    0.0000 C   0  0  0  0  0  0  0  0  0  0  0  0
   -2.5691    0.3090    0.0000 O   0  0  0  0  0  0  0  0  0  0  0  0
   -0.8090    0.5878    0.0000 N   0  0  0  0  0  0  0  0  0  0  0  0
   -0.8090    1.5878    0.0000 C   0  0  1  0  0  0  0  0  0  0  0  0
   -1.8090    1.5878    0.0000 H   0  0  0  0  0  0  0  0  0  0  0  0
   -0.8090    2.5878    0.0000 C   0  0  0  0  0  0  0  0  0  0  0  0
   -1.6750    3.0878    0.0000 C   0  0  0  0  0  0  0  0  0  0  0  0
    0.1910    1.5878    0.0000 C   0  0  0  0  0  0  0  0  0  0  0  0
    0.6910    2.4538    0.0000 N   0  0  0  0  0  0  0  0  0  0  0  0
    0.6910    0.7218    0.0000 O   0  0  0  0  0  0  0  0  0  0  0  0
   -0.0000   -0.0000    0.0000 C   0  0  0  0  0  0  0  0  0  0  0  0
  1  2  1  0  0  0  0
  2  3  1  0  0  0  0
  3  4  1  0  0  0  0
  4  5  1  1  0  0  0
  4 17  1  0  0  0  0
  4  6  1  0  0  0  0
  6  7  1  0  0  0  0
  7  8  2  0  0  0  0
  7  9  1  0  0  0  0
  9 10  1  0  0  0  0
  9 17  1  0  0  0  0
 10 11  1  6  0  0  0
 10 12  1  0  0  0  0
 10 14  1  0  0  0  0
 12 13  1  0  0  0  0
 14 15  1  0  0  0  0
 14 16  2  0  0  0  0
M  END
$$$$

 OpenBabel10082008492D

 42 46  0  0  1  0  0  0  0  0999 V2000
    1.6952   -3.9149    0.0000 C   0  0  0  0  0  0  0  0  0  0  0  0
    1.6952   -2.9362    0.0000 C   0  0  0  0  0  0  0  0  0  0  0  0
    0.8476   -2.4468    0.0000 C   0  0  0  0  0  0  0  0  0  0  0  0
    0.8476   -1.4681    0.0000 S   0  0  0  0  0  0  0  0  0  0  0  0
    0.0000   -0.9787    0.0000 C   0  0  0  0  0  0  0  0  0  0  0  0
   -0.8476   -1.4681    0.0000 N   0  0  0  0  0  0  0  0  0  0  0  0
   -1.6952   -0.9787    0.0000 C   0  0  0  0  0  0  0  0  0  0  0  0
   -2.5428   -1.4681    0.0000 N   0  0  0  0  0  0  0  0  0  0  0  0
   -3.3904   -0.9787    0.0000 C   0  0  2  0  0  0  0  0  0  0  0  0
   -2.5428   -0.4894    0.0000 H   0  0  0  0  0  0  0  0  0  0  0  0
   -4.2380   -1.4681    0.0000 C   0  0  0  0  0  0  0  0  0  0  0  0
   -4.2380   -0.4894    0.0000 C   0  0  1  0  0  0  0  0  0  0  0  0
   -4.2380    0.4894    0.0000 H   0  0  0  0  0  0  0  0  0  0  0  0
   -5.0856   -0.0000    0.0000 C   0  0  0  0  0  0  0  0  0  0  0  0
   -5.9332   -0.4894    0.0000 C   0  0  0  0  0  0  0  0  0  0  0  0
   -6.7808   -0.0000    0.0000 C   0  0  0  0  0  0  0  0  0  0  0  0
   -6.7808    0.9787    0.0000 C   0  0  0  0  0  0  0  0  0  0  0  0
   -7.6284    1.4681    0.0000 F   0  0  0  0  0  0  0  0  0  0  0  0
   -5.9332    1.4681    0.0000 C   0  0  0  0  0  0  0  0  0  0  0  0
   -5.9332    2.4468    0.0000 F   0  0  0  0  0  0  0  0  0  0  0  0
   -5.0856    0.9787    0.0000 C   0  0  0  0  0  0  0  0  0  0  0  0
   -1.6952   -0.0000    0.0000 C   0  0  0  0  0  0  0  0  0  0  0  0
   -2.4225    0.6549    0.0000 N   0  0  0  0  0  0  0  0  0  0  0  0
   -2.0244    1.5490    0.0000 N   0  0  0  0  0  0  0  0  0  0  0  0
   -1.0511    1.4467    0.0000 N   0  0  0  0  0  0  0  0  0  0  0  0
    0.2587    2.9014    0.0000 C   0  0  2  0  0  0  0  0  0  0  0  0
   -0.3238    3.6879    0.0000 H   0  0  0  0  0  0  0  0  0  0  0  0
    0.7918    3.7222    0.0000 C   0  0  0  0  0  0  0  0  0  0  0  0
    1.7371    3.4689    0.0000 C   0  0  2  0  0  0  0  0  0  0  0  0
    2.7038    3.6220    0.0000 H   0  0  0  0  0  0  0  0  0  0  0  0
    2.0879    4.3826    0.0000 O   0  0  0  0  0  0  0  0  0  0  0  0
    3.0545    4.5357    0.0000 C   0  0  0  0  0  0  0  0  0  0  0  0
    3.6705    3.7751    0.0000 C   0  0  0  0  0  0  0  0  0  0  0  0
    4.6371    3.9282    0.0000 O   0  0  0  0  0  0  0  0  0  0  0  0
    1.7883    2.4915    0.0000 C   0  0  1  0  0  0  0  0  0  0  0  0
    2.2327    1.6194    0.0000 H   0  0  0  0  0  0  0  0  0  0  0  0
    2.7657    2.4403    0.0000 O   0  0  0  0  0  0  0  0  0  0  0  0
    0.8746    2.1408    0.0000 C   0  0  1  0  0  0  0  0  0  0  0  0
    0.1826    1.4487    0.0000 H   0  0  0  0  0  0  0  0  0  0  0  0
    1.1279    1.1954    0.0000 O   0  0  0  0  0  0  0  0  0  0  0  0
   -0.8476    0.4894    0.0000 C   0  0  0  0  0  0  0  0  0  0  0  0
    0.0000    0.0000    0.0000 N   0  0  0  0  0  0  0  0  0  0  0  0
  1  2  1  0  0  0  0
  2  3  1  0  0  0  0
  3  4  1  0  0  0  0
  4  5  1  0  0  0  0
  5 42  1  0  0  0  0
  5  6  2  0  0  0  0
  6  7  1  0  0  0  0
  7  8  1  0  0  0  0
  7 22  2  0  0  0  0
  8  9  1  0  0  0  0
  9 10  1  1  0  0  0
  9 12  1  0  0  0  0
  9 11  1  0  0  0  0
 11 12  1  0  0  0  0
 12 13  1  6  0  0  0
 12 14  1  0  0  0  0
 14 21  1  0  0  0  0
 14 15  2  0  0  0  0
 15 16  1  0  0  0  0
 16 17  2  0  0  0  0
 17 18  1  0  0  0  0
 17 19  1  0  0  0  0
 19 20  1  0  0  0  0
 19 21  2  0  0  0  0
 22 41  1  0  0  0  0
 22 23  1  0  0  0  0
 23 24  2  0  0  0  0
 24 25  1  0  0  0  0
 25 26  1  0  0  0  0
 25 41  1  0  0  0  0
 26 27  1  1  0  0  0
 26 38  1  0  0  0  0
 26 28  1  0  0  0  0
 28 29  1  0  0  0  0
 29 30  1  1  0  0  0
 29 31  1  0  0  0  0
 29 35  1  0  0  0  0
 31 32  1  0  0  0  0
 32 33  1  0  0  0  0
 33 34  1  0  0  0  0
 35 36  1  6  0  0  0
 35 37  1  0  0  0  0
 35 38  1  0  0  0  0
 38 39  1  6  0  0  0
 38 40  1  0  0  0  0
 41 42  2  0  0  0  0
M  END
$$$$

 OpenBabel10082008492D

 21 23  0  0  0  0  0  0  0  0999 V2000
    1.3625   -1.0056    0.0000 C   0  0  0  0  0  0  0  0  0  0  0  0
    0.3653   -0.9309    0.0000 N   0  0  0  0  0  0  0  0  0  0  0  0
   -0.1347   -1.7969    0.0000 C   0  0  0  0  0  0  0  0  0  0  0  0
    0.4287   -2.6231    0.0000 O   0  0  0  0  0  0  0  0  0  0  0  0
   -1.1235   -1.9459    0.0000 C   0  0  0  0  0  0  0  0  0  0  0  0
   -1.8565   -1.2658    0.0000 C   0  0  0  0  0  0  0  0  0  0  0  0
   -2.7874   -1.6311    0.0000 O   0  0  0  0  0  0  0  0  0  0  0  0
   -1.7818   -0.2686    0.0000 N   0  0  0  0  0  0  0  0  0  0  0  0
   -2.6478    0.2314    0.0000 C   0  0  0  0  0  0  0  0  0  0  0  0
   -3.5139   -0.2686    0.0000 C   0  0  0  0  0  0  0  0  0  0  0  0
   -4.3799    0.2314    0.0000 C   0  0  0  0  0  0  0  0  0  0  0  0
   -4.3799    1.2314    0.0000 C   0  0  0  0  0  0  0  0  0  0  0  0
   -3.5139    1.7314    0.0000 C   0  0  0  0  0  0  0  0  0  0  0  0
   -2.6478    1.2314    0.0000 C   0  0  0  0  0  0  0  0  0  0  0  0
   -0.9556    0.2948    0.0000 C   0  0  0  0  0  0  0  0  0  0  0  0
   -1.1781    1.2697    0.0000 C   0  0  0  0  0  0  0  0  0  0  0  0
   -0.4450    1.9499    0.0000 C   0  0  0  0  0  0  0  0  0  0  0  0
   -0.6676    2.9248    0.0000 Cl  0  0  0  0  0  0  0  0  0  0  0  0
    0.5105    1.6551    0.0000 C   0  0  0  0  0  0  0  0  0  0  0  0
    0.7331    0.6802    0.0000 C   0  0  0  0  0  0  0  0  0  0  0  0
    0.0000    0.0000    0.0000 C   0  0  0  0  0  0  0  0  0  0  0  0
  1  2  1  0  0  0  0
  2 21  1  0  0  0  0
  2  3  1  0  0  0  0
  3  4  2  0  0  0  0
  3  5  1  0  0  0  0
  5  6  1  0  0  0  0
  6  7  2  0  0  0  0
  6  8  1  0  0  0  0
  8  9  1  0  0  0  0
  8 15  1  0  0  0  0
  9 14  1  0  0  0  0
  9 10  2  0  0  0  0
 10 11  1  0  0  0  0
 11 12  2  0  0  0  0
 12 13  1  0  0  0  0
 13 14  2  0  0  0  0
 15 21  1  0  0  0  0
 15 16  2  0  0  0  0
 16 17  1  0  0  0  0
 17 18  1  0  0  0  0
 17 19  2  0  0  0  0
 19 20  1  0  0  0  0
 20 21  2  0  0  0  0
M  END
$$$$

 OpenBabel10082008492D

 12 12  0  0  0  0  0  0  0  0999 V2000
   -1.7321   -4.0000    0.0000 C   0  0  0  0  0  0  0  0  0  0  0  0
   -0.8660   -3.5000    0.0000 C   0  0  0  0  0  0  0  0  0  0  0  0
   -0.0000   -3.0000    0.0000 C   0  0  0  0  0  0  0  0  0  0  0  0
   -0.0000   -2.0000    0.0000 N   0  0  0  0  0  0  0  0  0  0  0  0
    0.8660   -1.5000    0.0000 C   0  0  0  0  0  0  0  0  0  0  0  0
   -0.8660   -1.5000    0.0000 C   0  0  0  0  0  0  0  0  0  0  0  0
   -0.8660   -0.5000    0.0000 C   0  0  0  0  0  0  0  0  0  0  0  0
   -1.7321   -0.0000    0.0000 C   0  0  0  0  0  0  0  0  0  0  0  0
   -1.7321    1.0000    0.0000 C   0  0  0  0  0  0  0  0  0  0  0  0
   -0.8660    1.5000    0.0000 C   0  0  0  0  0  0  0  0  0  0  0  0
   -0.0000    1.0000    0.0000 C   0  0  0  0  0  0  0  0  0  0  0  0
    0.0000    0.0000    0.0000 C   0  0  0  0  0  0  0  0  0  0  0  0
  1  2  3  0  0  0  0
  2  3  1  0  0  0  0
  3  4  1  0  0  0  0
  4  5  1  0  0  0  0
  4  6  1  0  0  0  0
  6  7  1  0  0  0  0
  7 12  1  0  0  0  0
  7  8  2  0  0  0  0
  8  9  1  0  0  0  0
  9 10  2  0  0  0  0
 10 11  1  0  0  0  0
 11 12  2  0  0  0  0
M  END
$$$$

 OpenBabel10082008492D

 17 18  0  0  1  0  0  0  0  0999 V2000
   -5.7812    3.6750    0.0000 C   0  0  0  0  0  0  0  0  0  0  0  0
   -5.2812    2.8090    0.0000 C   0  0  0  0  0  0  0  0  0  0  0  0
   -6.2812    2.8090    0.0000 C   0  0  0  0  0  0  0  0  0  0  0  0
   -4.4152    3.3090    0.0000 C   0  0  0  0  0  0  0  0  0  0  0  0
   -5.2812    1.8090    0.0000 C   0  0  3  0  0  0  0  0  0  0  0  0
   -6.1472    1.3090    0.0000 O   0  0  0  0  0  0  0  0  0  0  0  0
   -4.4152    1.3090    0.0000 C   0  0  0  0  0  0  0  0  0  0  0  0
   -3.5491    1.8090    0.0000 C   0  0  0  0  0  0  0  0  0  0  0  0
   -2.6831    1.3090    0.0000 C   0  0  0  0  0  0  0  0  0  0  0  0
   -2.6831    0.3090    0.0000 C   0  0  0  0  0  0  0  0  0  0  0  0
   -1.8171   -0.1910    0.0000 C   0  0  0  0  0  0  0  0  0  0  0  0
   -0.9511    0.3090    0.0000 C   0  0  0  0  0  0  0  0  0  0  0  0
   -0.9511    1.3090    0.0000 C   0  0  0  0  0  0  0  0  0  0  0  0
   -1.8171    1.8090    0.0000 C   0  0  0  0  0  0  0  0  0  0  0  0
    0.0000    1.6180    0.0000 O   0  0  0  0  0  0  0  0  0  0  0  0
    0.5878    0.8090    0.0000 C   0  0  0  0  0  0  0  0  0  0  0  0
    0.0000    0.0000    0.0000 O   0  0  0  0  0  0  0  0  0  0  0  0
  1  2  1  0  0  0  0
  2  3  1  0  0  0  0
  2  4  1  0  0  0  0
  2  5  1  0  0  0  0
  5  6  1  0  0  0  0
  5  7  1  0  0  0  0
  7  8  2  0  0  0  0
  8  9  1  0  0  0  0
  9 14  1  0  0  0  0
  9 10  2  0  0  0  0
 10 11  1  0  0  0  0
 11 12  2  0  0  0  0
 12 17  1  0  0  0  0
 12 13  1  0  0  0  0
 13 14  2  0  0  0  0
 13 15  1  0  0  0  0
 15 16  1  0  0  0  0
 16 17  1  0  0  0  0
M  END
$$$$

 OpenBabel10082008492D

 46 49  0  0  0  0  0  0  0  0999 V2000
    4.0000   -6.9282    0.0000 C   0  0  0  0  0  0  0  0  0  0  0  0
    3.0000   -6.9282    0.0000 C   0  0  0  0  0  0  0  0  0  0  0  0
    2.5000   -6.0622    0.0000 C   0  0  0  0  0  0  0  0  0  0  0  0
    1.5000   -6.0622    0.0000 C   0  0  0  0  0  0  0  0  0  0  0  0
    1.0000   -5.1962    0.0000 C   0  0  0  0  0  0  0  0  0  0  0  0
    0.0000   -5.1962    0.0000 C   0  0  0  0  0  0  0  0  0  0  0  0
   -0.5000   -4.3301    0.0000 O   0  0  0  0  0  0  0  0  0  0  0  0
    0.0000   -3.4641    0.0000 C   0  0  0  0  0  0  0  0  0  0  0  0
    1.0000   -3.4641    0.0000 O   0  0  0  0  0  0  0  0  0  0  0  0
   -0.5000   -2.5981    0.0000 N   0  0  0  0  0  0  0  0  0  0  0  0
    0.0000   -1.7321    0.0000 C   0  0  0  0  0  0  0  0  0  0  0  0
    1.0000   -1.7321    0.0000 N   0  0  0  0  0  0  0  0  0  0  0  0
   -0.5000   -0.8660    0.0000 C   0  0  0  0  0  0  0  0  0  0  0  0
   -1.5000   -0.8660    0.0000 C   0  0  0  0  0  0  0  0  0  0  0  0
   -2.0000   -0.0000    0.0000 C   0  0  0  0  0  0  0  0  0  0  0  0
   -1.5000    0.8660    0.0000 C   0  0  0  0  0  0  0  0  0  0  0  0
   -2.0000    1.7321    0.0000 N   0  0  0  0  0  0  0  0  0  0  0  0
   -3.0000    1.7321    0.0000 C   0  0  0  0  0  0  0  0  0  0  0  0
   -3.5000    2.5981    0.0000 C   0  0  0  0  0  0  0  0  0  0  0  0
   -4.4945    2.7026    0.0000 N   0  0  0  0  0  0  0  0  0  0  0  0
   -4.7024    3.6808    0.0000 C   0  0  0  0  0  0  0  0  0  0  0  0
   -5.5685    4.1808    0.0000 C   0  0  0  0  0  0  0  0  0  0  0  0
   -5.5685    5.1808    0.0000 C   0  0  0  0  0  0  0  0  0  0  0  0
   -6.4345    5.6808    0.0000 C   0  0  0  0  0  0  0  0  0  0  0  0
   -6.4345    6.6808    0.0000 O   0  0  0  0  0  0  0  0  0  0  0  0
   -7.3005    5.1808    0.0000 N   0  0  0  0  0  0  0  0  0  0  0  0
   -8.1665    5.6808    0.0000 C   0  0  0  0  0  0  0  0  0  0  0  0
   -8.1665    6.6808    0.0000 C   0  0  0  0  0  0  0  0  0  0  0  0
   -9.0326    7.1808    0.0000 C   0  0  0  0  0  0  0  0  0  0  0  0
   -9.0326    8.1808    0.0000 O   0  0  0  0  0  0  0  0  0  0  0  0
   -9.8986    6.6808    0.0000 O   0  0  0  0  0  0  0  0  0  0  0  0
  -10.7646    7.1808    0.0000 C   0  0  0  0  0  0  0  0  0  0  0  0
  -10.7646    8.1808    0.0000 C   0  0  0  0  0  0  0  0  0  0  0  0
   -7.3005    4.1808    0.0000 C   0  0  0  0  0  0  0  0  0  0  0  0
   -6.4345    3.6808    0.0000 C   0  0  0  0  0  0  0  0  0  0  0  0
   -6.4345    2.6808    0.0000 C   0  0  0  0  0  0  0  0  0  0  0  0
   -7.3005    2.1808    0.0000 C   0  0  0  0  0  0  0  0  0  0  0  0
   -8.1665    2.6808    0.0000 C   0  0  0  0  0  0  0  0  0  0  0  0
   -8.1665    3.6808    0.0000 N   0  0  0  0  0  0  0  0  0  0  0  0
   -4.7024    5.6808    0.0000 C   0  0  0  0  0  0  0  0  0  0  0  0
   -3.8364    5.1808    0.0000 C   0  0  0  0  0  0  0  0  0  0  0  0
   -3.8364    4.1808    0.0000 C   0  0  0  0  0  0  0  0  0  0  0  0
   -3.0933    3.5116    0.0000 N   0  0  0  0  0  0  0  0  0  0  0  0
   -2.1151    3.7195    0.0000 C   0  0  0  0  0  0  0  0  0  0  0  0
   -0.5000    0.8660    0.0000 C   0  0  0  0  0  0  0  0  0  0  0  0
    0.0000    0.0000    0.0000 C   0  0  0  0  0  0  0  0  0  0  0  0
  1  2  1  0  0  0  0
  2  3  1  0  0  0  0
  3  4  1  0  0  0  0
  4  5  1  0  0  0  0
  5  6  1  0  0  0  0
  6  7  1  0  0  0  0
  7  8  1  0  0  0  0
  8  9  2  0  0  0  0
  8 10  1  0  0  0  0
 10 11  2  0  0  0  0
 11 12  1  0  0  0  0
 11 13  1  0  0  0  0
 13 46  1  0  0  0  0
 13 14  2  0  0  0  0
 14 15  1  0  0  0  0
 15 16  2  0  0  0  0
 16 17  1  0  0  0  0
 16 45  1  0  0  0  0
 17 18  1  0  0  0  0
 18 19  1  0  0  0  0
 19 43  1  0  0  0  0
 19 20  2  0  0  0  0
 20 21  1  0  0  0  0
 21 42  1  0  0  0  0
 21 22  2  0  0  0  0
 22 23  1  0  0  0  0
 23 24  1  0  0  0  0
 23 40  2  0  0  0  0
 24 25  2  0  0  0  0
 24 26  1  0  0  0  0
 26 27  1  0  0  0  0
 26 34  1  0  0  0  0
 27 28  1  0  0  0  0
 28 29  1  0  0  0  0
 29 30  2  0  0  0  0
 29 31  1  0  0  0  0
 31 32  1  0  0  0  0
 32 33  1  0  0  0  0
 34 39  1  0  0  0  0
 34 35  2  0  0  0  0
 35 36  1  0  0  0  0
 36 37  2  0  0  0  0
 37 38  1  0  0  0  0
 38 39  2  0  0  0  0
 40 41  1  0  0  0  0
 41 42  2  0  0  0  0
 42 43  1  0  0  0  0
 43 44  1  0  0  0  0
 45 46  2  0  0  0  0
M  END
$$$$

 OpenBabel10082008492D

 18 18  0  0  1  0  0  0  0  0999 V2000
   -1.7321   -2.0000    0.0000 C   0  0  0  0  0  0  0  0  0  0  0  0
   -0.8660   -1.5000    0.0000 O   0  0  0  0  0  0  0  0  0  0  0  0
   -0.8660   -0.5000    0.0000 C   0  0  0  0  0  0  0  0  0  0  0  0
   -1.7321   -0.0000    0.0000 C   0  0  0  0  0  0  0  0  0  0  0  0
   -1.7321    1.0000    0.0000 C   0  0  0  0  0  0  0  0  0  0  0  0
   -0.8660    1.5000    0.0000 C   0  0  0  0  0  0  0  0  0  0  0  0
   -0.8660    2.5000    0.0000 O   0  0  0  0  0  0  0  0  0  0  0  0
   -1.7321    3.0000    0.0000 C   0  0  0  0  0  0  0  0  0  0  0  0
   -0.0000    1.0000    0.0000 C   0  0  0  0  0  0  0  0  0  0  0  0
    0.8660    1.5000    0.0000 C   0  0  3  0  0  0  0  0  0  0  0  0
    1.7321    1.0000    0.0000 O   0  0  0  0  0  0  0  0  0  0  0  0
    0.8660    2.5000    0.0000 C   0  0  0  0  0  0  0  0  0  0  0  0
   -0.0000    3.0000    0.0000 N   0  0  0  0  0  0  0  0  0  0  0  0
   -0.0000    4.0000    0.0000 C   0  0  0  0  0  0  0  0  0  0  0  0
    0.8660    4.5000    0.0000 O   0  0  0  0  0  0  0  0  0  0  0  0
   -0.8660    4.5000    0.0000 C   0  0  0  0  0  0  0  0  0  0  0  0
   -0.8660    5.5000    0.0000 N   0  0  0  0  0  0  0  0  0  0  0  0
    0.0000    0.0000    0.0000 C   0  0  0  0  0  0  0  0  0  0  0  0
  1  2  1  0  0  0  0
  2  3  1  0  0  0  0
  3 18  1  0  0  0  0
  3  4  2  0  0  0  0
  4  5  1  0  0  0  0
  5  6  2  0  0  0  0
  6  7  1  0  0  0  0
  6  9  1  0  0  0  0
  7  8  1  0  0  0  0
  9 10  1  0  0  0  0
  9 18  2  0  0  0  0
 10 11  1  0  0  0  0
 10 12  1  0  0  0  0
 12 13  1  0  0  0  0
 13 14  1  0  0  0  0
 14 15  2  0  0  0  0
 14 16  1  0  0  0  0
 16 17  1  0  0  0  0
M  END
$$$$

 OpenBabel10082008492D

 15 15  0  0  1  0  0  0  0  0999 V2000
   -1.7321   -5.0000    0.0000 N   0  0  0  0  0  0  0  0  0  0  0  0
   -0.8660   -4.5000    0.0000 C   0  0  0  0  0  0  0  0  0  0  0  0
   -0.0000   -5.0000    0.0000 O   0  0  0  0  0  0  0  0  0  0  0  0
   -0.8660   -3.5000    0.0000 O   0  0  0  0  0  0  0  0  0  0  0  0
   -1.7321   -3.0000    0.0000 C   0  0  0  0  0  0  0  0  0  0  0  0
   -1.7321   -2.0000    0.0000 C   0  0  2  0  0  0  0  0  0  0  0  0
   -2.2321   -1.1340    0.0000 H   0  0  0  0  0  0  0  0  0  0  0  0
   -2.7321   -2.0000    0.0000 N   0  0  0  0  0  0  0  0  0  0  0  0
   -0.8660   -1.5000    0.0000 C   0  0  0  0  0  0  0  0  0  0  0  0
   -0.8660   -0.5000    0.0000 C   0  0  0  0  0  0  0  0  0  0  0  0
   -1.7321   -0.0000    0.0000 C   0  0  0  0  0  0  0  0  0  0  0  0
   -1.7321    1.0000    0.0000 C   0  0  0  0  0  0  0  0  0  0  0  0
   -0.8660    1.5000    0.0000 C   0  0  0  0  0  0  0  0  0  0  0  0
   -0.0000    1.0000    0.0000 C   0  0  0  0  0  0  0  0  0  0  0  0
    0.0000    0.0000    0.0000 C   0  0  0  0  0  0  0  0  0  0  0  0
  1  2  1  0  0  0  0
  2  3  2  0  0  0  0
  2  4  1  0  0  0  0
  4  5  1  0  0  0  0
  5  6  1  0  0  0  0
  6  7  1  1  0  0  0
  6  8  1  0  0  0  0
  6  9  1  0  0  0  0
  9 10  1  0  0  0  0
 10 15  1  0  0  0  0
 10 11  2  0  0  0  0
 11 12  1  0  0  0  0
 12 13  2  0  0  0  0
 13 14  1  0  0  0  0
 14 15  2  0  0  0  0
M  END
$$$$

 OpenBabel10082008492D

 22 24  0  0  0  0  0  0  0  0999 V2000
   -4.2788   -2.7601    0.0000 C   0  0  0  0  0  0  0  0  0  0  0  0
   -4.5878   -1.8090    0.0000 C   0  0  0  0  0  0  0  0  0  0  0  0
   -5.5388   -1.5000    0.0000 O   0  0  0  0  0  0  0  0  0  0  0  0
   -5.5388   -0.5000    0.0000 N   0  0  0  0  0  0  0  0  0  0  0  0
   -4.5878   -0.1910    0.0000 C   0  0  0  0  0  0  0  0  0  0  0  0
   -4.2788    0.7601    0.0000 C   0  0  0  0  0  0  0  0  0  0  0  0
   -4.9479    1.5032    0.0000 C   0  0  0  0  0  0  0  0  0  0  0  0
   -4.6389    2.4543    0.0000 C   0  0  0  0  0  0  0  0  0  0  0  0
   -3.6607    2.6622    0.0000 C   0  0  0  0  0  0  0  0  0  0  0  0
   -2.9916    1.9190    0.0000 C   0  0  0  0  0  0  0  0  0  0  0  0
   -3.3006    0.9680    0.0000 C   0  0  0  0  0  0  0  0  0  0  0  0
   -4.0000   -1.0000    0.0000 C   0  0  0  0  0  0  0  0  0  0  0  0
   -3.0000   -1.0000    0.0000 C   0  0  0  0  0  0  0  0  0  0  0  0
   -2.5000   -0.1340    0.0000 C   0  0  0  0  0  0  0  0  0  0  0  0
   -1.5000   -0.1340    0.0000 C   0  0  0  0  0  0  0  0  0  0  0  0
   -1.0000   -1.0000    0.0000 C   0  0  0  0  0  0  0  0  0  0  0  0
    0.0000   -1.0000    0.0000 S   0  0  0  0  0  0  0  0  0  0  0  0
    0.0000   -2.0000    0.0000 N   0  0  0  0  0  0  0  0  0  0  0  0
    1.0000   -1.0000    0.0000 O   0  0  0  0  0  0  0  0  0  0  0  0
   -0.0000   -0.0000    0.0000 O   0  0  0  0  0  0  0  0  0  0  0  0
   -1.5000   -1.8660    0.0000 C   0  0  0  0  0  0  0  0  0  0  0  0
   -2.5000   -1.8660    0.0000 C   0  0  0  0  0  0  0  0  0  0  0  0
  1  2  1  0  0  0  0
  2 12  2  0  0  0  0
  2  3  1  0  0  0  0
  3  4  1  0  0  0  0
  4  5  2  0  0  0  0
  5  6  1  0  0  0  0
  5 12  1  0  0  0  0
  6 11  1  0  0  0  0
  6  7  2  0  0  0  0
  7  8  1  0  0  0  0
  8  9  2  0  0  0  0
  9 10  1  0  0  0  0
 10 11  2  0  0  0  0
 12 13  1  0  0  0  0
 13 22  1  0  0  0  0
 13 14  2  0  0  0  0
 14 15  1  0  0  0  0
 15 16  2  0  0  0  0
 16 17  1  0  0  0  0
 16 21  1  0  0  0  0
 17 18  1  0  0  0  0
 17 19  2  0  0  0  0
 17 20  2  0  0  0  0
 21 22  2  0  0  0  0
M  END
$$$$

 OpenBabel10082008492D

 13 13  0  0  1  0  0  0  0  0999 V2000
   -0.8660   -1.5000    0.0000 C   0  0  0  0  0  0  0  0  0  0  0  0
   -0.8660   -0.5000    0.0000 C   0  0  0  0  0  0  0  0  0  0  0  0
   -1.7321   -0.0000    0.0000 C   0  0  0  0  0  0  0  0  0  0  0  0
   -1.7321    1.0000    0.0000 C   0  0  0  0  0  0  0  0  0  0  0  0
   -0.8660    1.5000    0.0000 C   0  0  0  0  0  0  0  0  0  0  0  0
   -0.0000    1.0000    0.0000 C   0  0  0  0  0  0  0  0  0  0  0  0
    0.8660    1.5000    0.0000 C   0  0  0  0  0  0  0  0  0  0  0  0
    0.0000    0.0000    0.0000 C   0  0  0  0  0  0  0  0  0  0  0  0
    0.8660   -0.5000    0.0000 O   0  0  0  0  0  0  0  0  0  0  0  0
    0.8660   -1.5000    0.0000 C   0  0  0  0  0  0  0  0  0  0  0  0
    1.7321   -2.0000    0.0000 C   0  0  3  0  0  0  0  0  0  0  0  0
    2.5981   -1.5000    0.0000 C   0  0  0  0  0  0  0  0  0  0  0  0
    1.7321   -3.0000    0.0000 N   0  0  0  0  0  0  0  0  0  0  0  0
  1  2  1  0  0  0  0
  2  8  1  0  0  0  0
  2  3  2  0  0  0  0
  3  4  1  0  0  0  0
  4  5  2  0  0  0  0
  5  6  1  0  0  0  0
  6  7  1  0  0  0  0
  6  8  2  0  0  0  0
  8  9  1  0  0  0  0
  9 10  1  0  0  0  0
 10 11  1  0  0  0  0
 11 12  1  0  0  0  0
 11 13  1  0  0  0  0
M  END
$$$$

 OpenBabel10082008492D

 24 26  0  0  1  0  0  0  0  0999 V2000
   -2.5370    0.4784    0.0000 C   0  0  0  0  0  0  0  0  0  0  0  0
   -1.7083   -0.0001    0.0000 N   0  0  0  0  0  0  0  0  0  0  0  0
   -0.8541    0.4931    0.0000 C   0  0  1  0  0  0  0  0  0  0  0  0
   -0.8542    1.4501    0.0000 H   0  0  0  0  0  0  0  0  0  0  0  0
   -1.8404    0.4931    0.0000 C   0  0  0  0  0  0  0  0  0  0  0  0
   -2.2015   -0.1322    0.0000 C   0  0  0  0  0  0  0  0  0  0  0  0
   -1.7083   -0.9864    0.0000 C   0  0  2  0  0  0  0  0  0  0  0  0
   -2.5370   -1.4649    0.0000 H   0  0  0  0  0  0  0  0  0  0  0  0
   -0.8541   -1.4795    0.0000 C   0  0  0  0  0  0  0  0  0  0  0  0
    0.0000   -0.9863    0.0000 C   0  0  2  0  0  0  0  0  0  0  0  0
    0.8287   -1.4648    0.0000 H   0  0  0  0  0  0  0  0  0  0  0  0
    0.8287   -0.5078    0.0000 O   0  0  0  0  0  0  0  0  0  0  0  0
    0.8287    0.4491    0.0000 C   0  0  0  0  0  0  0  0  0  0  0  0
   -0.0001    0.9276    0.0000 O   0  0  0  0  0  0  0  0  0  0  0  0
    1.6574    0.9276    0.0000 C   0  0  3  0  0  0  0  0  0  0  0  0
    1.6573    1.8846    0.0000 C   0  0  0  0  0  0  0  0  0  0  0  0
    2.4861    2.3631    0.0000 O   0  0  0  0  0  0  0  0  0  0  0  0
    2.4861    0.4492    0.0000 C   0  0  0  0  0  0  0  0  0  0  0  0
    2.4862   -0.5077    0.0000 C   0  0  0  0  0  0  0  0  0  0  0  0
    3.3149   -0.9862    0.0000 C   0  0  0  0  0  0  0  0  0  0  0  0
    4.1436   -0.5077    0.0000 C   0  0  0  0  0  0  0  0  0  0  0  0
    4.1436    0.4493    0.0000 C   0  0  0  0  0  0  0  0  0  0  0  0
    3.3148    0.9277    0.0000 C   0  0  0  0  0  0  0  0  0  0  0  0
    0.0000   -0.0000    0.0000 C   0  0  0  0  0  0  0  0  0  0  0  0
  1  2  1  0  0  0  0
  2  7  1  0  0  0  0
  2  3  1  0  0  0  0
  3  4  1  6  0  0  0
  3 24  1  0  0  0  0
  3  5  1  0  0  0  0
  5  6  1  0  0  0  0
  6  7  1  0  0  0  0
  7  8  1  6  0  0  0
  7  9  1  0  0  0  0
  9 10  1  0  0  0  0
 10 11  1  6  0  0  0
 10 12  1  0  0  0  0
 10 24  1  0  0  0  0
 12 13  1  0  0  0  0
 13 14  2  0  0  0  0
 13 15  1  0  0  0  0
 15 16  1  0  0  0  0
 15 18  1  0  0  0  0
 16 17  1  0  0  0  0
 18 23  1  0  0  0  0
 18 19  2  0  0  0  0
 19 20  1  0  0  0  0
 20 21  2  0  0  0  0
 21 22  1  0  0  0  0
 22 23  2  0  0  0  0
M  END
$$$$

 OpenBabel10082008492D

 27 30  0  0  0  0  0  0  0  0999 V2000
    1.7321    4.0000    0.0000 C   0  0  0  0  0  0  0  0  0  0  0  0
    0.8660    4.5000    0.0000 C   0  0  0  0  0  0  0  0  0  0  0  0
    0.0000    4.0000    0.0000 S   0  0  0  0  0  0  0  0  0  0  0  0
    0.0000    3.0000    0.0000 C   0  0  0  0  0  0  0  0  0  0  0  0
    0.8660    2.5000    0.0000 C   0  0  0  0  0  0  0  0  0  0  0  0
    0.8660    1.5000    0.0000 C   0  0  0  0  0  0  0  0  0  0  0  0
    0.0000    1.0000    0.0000 C   0  0  0  0  0  0  0  0  0  0  0  0
   -0.8660    1.5000    0.0000 C   0  0  0  0  0  0  0  0  0  0  0  0
   -0.8660    2.5000    0.0000 C   0  0  0  0  0  0  0  0  0  0  0  0
   -1.7321    1.0000    0.0000 N   0  0  0  0  0  0  0  0  0  0  0  0
   -2.5981    1.5000    0.0000 C   0  0  0  0  0  0  0  0  0  0  0  0
   -3.4641    1.0000    0.0000 C   0  0  0  0  0  0  0  0  0  0  0  0
   -3.4641    0.0000    0.0000 C   0  0  0  0  0  0  0  0  0  0  0  0
   -4.3301   -0.5000    0.0000 N   0  0  0  0  0  0  0  0  0  0  0  0
   -4.3301   -1.5000    0.0000 C   0  0  0  0  0  0  0  0  0  0  0  0
   -5.1962   -2.0000    0.0000 C   0  0  0  0  0  0  0  0  0  0  0  0
   -6.0622   -1.5000    0.0000 N   0  0  0  0  0  0  0  0  0  0  0  0
   -6.9282   -2.0000    0.0000 C   0  0  0  0  0  0  0  0  0  0  0  0
   -6.0622   -0.5000    0.0000 C   0  0  0  0  0  0  0  0  0  0  0  0
   -5.1962    0.0000    0.0000 C   0  0  0  0  0  0  0  0  0  0  0  0
   -1.7321    0.0000    0.0000 C   0  0  0  0  0  0  0  0  0  0  0  0
   -2.5981   -0.5000    0.0000 C   0  0  0  0  0  0  0  0  0  0  0  0
   -2.5981   -1.5000    0.0000 C   0  0  0  0  0  0  0  0  0  0  0  0
   -1.7321   -2.0000    0.0000 C   0  0  0  0  0  0  0  0  0  0  0  0
   -0.8660   -1.5000    0.0000 C   0  0  0  0  0  0  0  0  0  0  0  0
   -0.8660   -0.5000    0.0000 C   0  0  0  0  0  0  0  0  0  0  0  0
   -0.0000   -0.0000    0.0000 S   0  0  0  0  0  0  0  0  0  0  0  0
  1  2  1  0  0  0  0
  2  3  1  0  0  0  0
  3  4  1  0  0  0  0
  4  9  1  0  0  0  0
  4  5  2  0  0  0  0
  5  6  1  0  0  0  0
  6  7  2  0  0  0  0
  7 27  1  0  0  0  0
  7  8  1  0  0  0  0
  8  9  2  0  0  0  0
  8 10  1  0  0  0  0
 10 11  1  0  0  0  0
 10 21  1  0  0  0  0
 11 12  1  0  0  0  0
 12 13  1  0  0  0  0
 13 14  1  0  0  0  0
 14 20  1  0  0  0  0
 14 15  1  0  0  0  0
 15 16  1  0  0  0  0
 16 17  1  0  0  0  0
 17 18  1  0  0  0  0
 17 19  1  0  0  0  0
 19 20  1  0  0  0  0
 21 26  1  0  0  0  0
 21 22  2  0  0  0  0
 22 23  1  0  0  0  0
 23 24  2  0  0  0  0
 24 25  1  0  0  0  0
 25 26  2  0  0  0  0
 26 27  1  0  0  0  0
M  END
$$$$

 OpenBabel10082008492D

 11 11  0  0  1  0  0  0  0  0999 V2000
    3.4641    0.0000    0.0000 C   0  0  0  0  0  0  0  0  0  0  0  0
    2.5981   -0.5000    0.0000 C   0  0  2  0  0  0  0  0  0  0  0  0
    2.0981   -1.3660    0.0000 H   0  0  0  0  0  0  0  0  0  0  0  0
    3.0981   -1.3660    0.0000 N   0  0  0  0  0  0  0  0  0  0  0  0
    1.7321    0.0000    0.0000 C   0  0  0  0  0  0  0  0  0  0  0  0
    0.8660   -0.5000    0.0000 C   0  0  0  0  0  0  0  0  0  0  0  0
    0.8660   -1.5000    0.0000 C   0  0  0  0  0  0  0  0  0  0  0  0
    0.0000   -2.0000    0.0000 C   0  0  0  0  0  0  0  0  0  0  0  0
   -0.8660   -1.5000    0.0000 C   0  0  0  0  0  0  0  0  0  0  0  0
   -0.8660   -0.5000    0.0000 C   0  0  0  0  0  0  0  0  0  0  0  0
    0.0000   -0.0000    0.0000 C   0  0  0  0  0  0  0  0  0  0  0  0
  1  2  1  0  0  0  0
  2  3  1  1  0  0  0
  2  4  1  0  0  0  0
  2  5  1  0  0  0  0
  5  6  1  0  0  0  0
  6 11  1  0  0  0  0
  6  7  2  0  0  0  0
  7  8  1  0  0  0  0
  8  9  2  0  0  0  0
  9 10  1  0  0  0  0
 10 11  2  0  0  0  0
M  END
$$$$

 OpenBabel10082008492D

 25 27  0  0  0  0  0  0  0  0999 V2000
    1.0000    1.7321    0.0000 C   0  0  0  0  0  0  0  0  0  0  0  0
    1.5000    0.8660    0.0000 O   0  0  0  0  0  0  0  0  0  0  0  0
    1.0000    0.0000    0.0000 C   0  0  0  0  0  0  0  0  0  0  0  0
    1.5000   -0.8660    0.0000 C   0  0  0  0  0  0  0  0  0  0  0  0
    1.0000   -1.7321    0.0000 C   0  0  0  0  0  0  0  0  0  0  0  0
    0.0000   -1.7321    0.0000 C   0  0  0  0  0  0  0  0  0  0  0  0
   -0.6691   -2.4752    0.0000 N   0  0  0  0  0  0  0  0  0  0  0  0
   -0.4612   -3.4533    0.0000 H   0  0  0  0  0  0  0  0  0  0  0  0
   -1.5827   -2.0685    0.0000 C   0  0  0  0  0  0  0  0  0  0  0  0
   -2.4487   -2.5685    0.0000 S   0  3  1  0  0  0  0  0  0  0  0  0
   -2.4487   -3.5685    0.0000 O   0  5  0  0  0  0  0  0  0  0  0  0
   -3.3147   -2.0685    0.0000 C   0  0  0  0  0  0  0  0  0  0  0  0
   -3.3147   -1.0685    0.0000 C   0  0  0  0  0  0  0  0  0  0  0  0
   -2.4487   -0.5685    0.0000 N   0  0  0  0  0  0  0  0  0  0  0  0
   -2.4487    0.4315    0.0000 C   0  0  0  0  0  0  0  0  0  0  0  0
   -3.3147    0.9315    0.0000 C   0  0  0  0  0  0  0  0  0  0  0  0
   -3.3147    1.9315    0.0000 C   0  0  0  0  0  0  0  0  0  0  0  0
   -4.1808    0.4315    0.0000 C   0  0  0  0  0  0  0  0  0  0  0  0
   -5.0468    0.9315    0.0000 O   0  0  0  0  0  0  0  0  0  0  0  0
   -5.9128    0.4315    0.0000 C   0  0  0  0  0  0  0  0  0  0  0  0
   -4.1808   -0.5685    0.0000 C   0  0  0  0  0  0  0  0  0  0  0  0
   -5.0468   -1.0685    0.0000 C   0  0  0  0  0  0  0  0  0  0  0  0
   -1.4781   -1.0739    0.0000 N   0  0  0  0  0  0  0  0  0  0  0  0
   -0.5000   -0.8660    0.0000 C   0  0  0  0  0  0  0  0  0  0  0  0
   -0.0000   -0.0000    0.0000 C   0  0  0  0  0  0  0  0  0  0  0  0
  1  2  1  0  0  0  0
  2  3  1  0  0  0  0
  3 25  1  0  0  0  0
  3  4  2  0  0  0  0
  4  5  1  0  0  0  0
  5  6  2  0  0  0  0
  6 24  1  0  0  0  0
  6  7  1  0  0  0  0
  7  8  1  0  0  0  0
  7  9  1  0  0  0  0
  9 23  2  0  0  0  0
 10  9  1  1  0  0  0
 10 11  1  0  0  0  0
 10 12  1  0  0  0  0
 12 13  1  0  0  0  0
 13 21  1  0  0  0  0
 13 14  2  0  0  0  0
 14 15  1  0  0  0  0
 15 16  2  0  0  0  0
 16 17  1  0  0  0  0
 16 18  1  0  0  0  0
 18 19  1  0  0  0  0
 18 21  2  0  0  0  0
 19 20  1  0  0  0  0
 21 22  1  0  0  0  0
 23 24  1  0  0  0  0
 24 25  2  0  0  0  0
M  CHG  2  10   1  11  -1
M  END
$$$$

 OpenBabel10082008492D

 27 29  0  0  0  0  0  0  0  0999 V2000
    3.4641    1.0000    0.0000 O   0  0  0  0  0  0  0  0  0  0  0  0
    2.5981    1.5000    0.0000 C   0  0  0  0  0  0  0  0  0  0  0  0
    1.7321    1.0000    0.0000 C   0  0  0  0  0  0  0  0  0  0  0  0
    1.7321   -0.0000    0.0000 O   0  0  0  0  0  0  0  0  0  0  0  0
    0.8660   -0.5000    0.0000 C   0  0  0  0  0  0  0  0  0  0  0  0
    0.8660   -1.5000    0.0000 C   0  0  0  0  0  0  0  0  0  0  0  0
   -0.0000   -2.0000    0.0000 C   0  0  0  0  0  0  0  0  0  0  0  0
   -0.8660   -1.5000    0.0000 C   0  0  0  0  0  0  0  0  0  0  0  0
   -1.7321   -2.0000    0.0000 C   0  0  0  0  0  0  0  0  0  0  0  0
   -2.5981   -1.5000    0.0000 C   0  0  0  0  0  0  0  0  0  0  0  0
   -3.4641   -2.0000    0.0000 C   0  0  0  0  0  0  0  0  0  0  0  0
   -4.3301   -1.5000    0.0000 C   0  0  0  0  0  0  0  0  0  0  0  0
   -4.3301   -0.5000    0.0000 Cl  0  0  0  0  0  0  0  0  0  0  0  0
   -2.5981   -0.5000    0.0000 C   0  0  0  0  0  0  0  0  0  0  0  0
   -1.7321   -0.0000    0.0000 C   0  0  0  0  0  0  0  0  0  0  0  0
   -1.7321    1.0000    0.0000 C   0  0  0  0  0  0  0  0  0  0  0  0
   -2.5981    1.5000    0.0000 C   0  0  0  0  0  0  0  0  0  0  0  0
   -3.4641    1.0000    0.0000 C   0  0  0  0  0  0  0  0  0  0  0  0
   -3.4641    0.0000    0.0000 C   0  0  0  0  0  0  0  0  0  0  0  0
   -1.7321   -3.0000    0.0000 C   0  0  0  0  0  0  0  0  0  0  0  0
   -0.8660   -3.5000    0.0000 C   0  0  0  0  0  0  0  0  0  0  0  0
   -0.8660   -4.5000    0.0000 C   0  0  0  0  0  0  0  0  0  0  0  0
   -1.7321   -5.0000    0.0000 C   0  0  0  0  0  0  0  0  0  0  0  0
   -2.5981   -4.5000    0.0000 C   0  0  0  0  0  0  0  0  0  0  0  0
   -2.5981   -3.5000    0.0000 C   0  0  0  0  0  0  0  0  0  0  0  0
   -0.8660   -0.5000    0.0000 C   0  0  0  0  0  0  0  0  0  0  0  0
   -0.0000   -0.0000    0.0000 C   0  0  0  0  0  0  0  0  0  0  0  0
  1  2  1  0  0  0  0
  2  3  1  0  0  0  0
  3  4  1  0  0  0  0
  4  5  1  0  0  0  0
  5 27  1  0  0  0  0
  5  6  2  0  0  0  0
  6  7  1  0  0  0  0
  7  8  2  0  0  0  0
  8  9  1  0  0  0  0
  8 26  1  0  0  0  0
  9 10  2  0  0  0  0
  9 20  1  0  0  0  0
 10 11  1  0  0  0  0
 10 14  1  0  0  0  0
 11 12  1  0  0  0  0
 12 13  1  0  0  0  0
 14 19  1  0  0  0  0
 14 15  2  0  0  0  0
 15 16  1  0  0  0  0
 16 17  2  0  0  0  0
 17 18  1  0  0  0  0
 18 19  2  0  0  0  0
 20 25  1  0  0  0  0
 20 21  2  0  0  0  0
 21 22  1  0  0  0  0
 22 23  2  0  0  0  0
 23 24  1  0  0  0  0
 24 25  2  0  0  0  0
 26 27  2  0  0  0  0
M  END
$$$$

 OpenBabel10082008492D

 36 40  0  0  1  0  0  0  0  0999 V2000
    0.8660   -2.5000    0.0000 C   0  0  0  0  0  0  0  0  0  0  0  0
    0.8660   -1.5000    0.0000 C   0  0  0  0  0  0  0  0  0  0  0  0
    1.7321   -1.0000    0.0000 O   0  0  0  0  0  0  0  0  0  0  0  0
   -0.0000   -1.0000    0.0000 N   0  0  0  0  0  0  0  0  0  0  0  0
   -0.8660   -1.5000    0.0000 C   0  0  0  0  0  0  0  0  0  0  0  0
   -1.7321   -1.0000    0.0000 C   0  0  0  0  0  0  0  0  0  0  0  0
   -1.7321    0.0000    0.0000 N   0  0  0  0  0  0  0  0  0  0  0  0
   -2.5981    0.5000    0.0000 C   0  0  0  0  0  0  0  0  0  0  0  0
   -3.4641    0.0000    0.0000 C   0  0  0  0  0  0  0  0  0  0  0  0
   -4.3301    0.5000    0.0000 C   0  0  0  0  0  0  0  0  0  0  0  0
   -4.3301    1.5000    0.0000 C   0  0  0  0  0  0  0  0  0  0  0  0
   -5.1962    2.0000    0.0000 O   0  0  0  0  0  0  0  0  0  0  0  0
   -6.0622    1.5000    0.0000 C   0  0  0  0  0  0  0  0  0  0  0  0
   -6.0622    0.5000    0.0000 C   0  0  3  0  0  0  0  0  0  0  0  0
   -5.2532   -0.0878    0.0000 C   0  0  0  0  0  0  0  0  0  0  0  0
   -5.5622   -1.0388    0.0000 O   0  0  0  0  0  0  0  0  0  0  0  0
   -6.5622   -1.0388    0.0000 C   0  0  3  0  0  0  0  0  0  0  0  0
   -7.4757   -1.4456    0.0000 C   0  0  0  0  0  0  0  0  0  0  0  0
   -8.2847   -0.8578    0.0000 N   0  0  0  0  0  0  0  0  0  0  0  0
   -8.2847    0.1422    0.0000 C   0  0  0  0  0  0  0  0  0  0  0  0
   -9.2358    0.4512    0.0000 C   0  0  0  0  0  0  0  0  0  0  0  0
   -9.8236   -0.3578    0.0000 N   0  0  0  0  0  0  0  0  0  0  0  0
   -9.2358   -1.1668    0.0000 C   0  0  0  0  0  0  0  0  0  0  0  0
   -6.6667   -2.0334    0.0000 C   0  0  0  0  0  0  0  0  0  0  0  0
   -5.8577   -2.6211    0.0000 C   0  0  0  0  0  0  0  0  0  0  0  0
   -5.9622   -3.6157    0.0000 C   0  0  0  0  0  0  0  0  0  0  0  0
   -6.8758   -4.0224    0.0000 C   0  0  0  0  0  0  0  0  0  0  0  0
   -6.9803   -5.0169    0.0000 Cl  0  0  0  0  0  0  0  0  0  0  0  0
   -7.6848   -3.4346    0.0000 C   0  0  0  0  0  0  0  0  0  0  0  0
   -7.5803   -2.4401    0.0000 C   0  0  0  0  0  0  0  0  0  0  0  0
   -8.3893   -1.8523    0.0000 Cl  0  0  0  0  0  0  0  0  0  0  0  0
   -6.8712   -0.0878    0.0000 O   0  0  0  0  0  0  0  0  0  0  0  0
   -3.4641    2.0000    0.0000 C   0  0  0  0  0  0  0  0  0  0  0  0
   -2.5981    1.5000    0.0000 C   0  0  0  0  0  0  0  0  0  0  0  0
   -0.8660    0.5000    0.0000 C   0  0  0  0  0  0  0  0  0  0  0  0
    0.0000   -0.0000    0.0000 C   0  0  0  0  0  0  0  0  0  0  0  0
  1  2  1  0  0  0  0
  2  3  2  0  0  0  0
  2  4  1  0  0  0  0
  4 36  1  0  0  0  0
  4  5  1  0  0  0  0
  5  6  1  0  0  0  0
  6  7  1  0  0  0  0
  7  8  1  0  0  0  0
  7 35  1  0  0  0  0
  8 34  1  0  0  0  0
  8  9  2  0  0  0  0
  9 10  1  0  0  0  0
 10 11  2  0  0  0  0
 11 12  1  0  0  0  0
 11 33  1  0  0  0  0
 12 13  1  0  0  0  0
 13 14  1  0  0  0  0
 14 32  1  0  0  0  0
 14 15  1  0  0  0  0
 15 16  1  0  0  0  0
 16 17  1  0  0  0  0
 17 18  1  0  0  0  0
 17 24  1  0  0  0  0
 17 32  1  0  0  0  0
 18 19  1  0  0  0  0
 19 23  1  0  0  0  0
 19 20  1  0  0  0  0
 20 21  2  0  0  0  0
 21 22  1  0  0  0  0
 22 23  2  0  0  0  0
 24 30  1  0  0  0  0
 24 25  2  0  0  0  0
 25 26  1  0  0  0  0
 26 27  2  0  0  0  0
 27 28  1  0  0  0  0
 27 29  1  0  0  0  0
 29 30  2  0  0  0  0
 30 31  1  0  0  0  0
 33 34  2  0  0  0  0
 35 36  1  0  0  0  0
M  END
$$$$

 OpenBabel10082008492D

 23 26  0  0  0  0  0  0  0  0999 V2000
   -1.0852   -0.7570    0.0000 O   0  0  0  0  0  0  0  0  0  0  0  0
   -2.0740   -0.6079    0.0000 C   0  0  0  0  0  0  0  0  0  0  0  0
   -2.6374   -1.4342    0.0000 C   0  0  0  0  0  0  0  0  0  0  0  0
   -3.6346   -1.5089    0.0000 N   0  0  0  0  0  0  0  0  0  0  0  0
   -4.3147   -0.7759    0.0000 C   0  0  0  0  0  0  0  0  0  0  0  0
   -5.2703   -1.0706    0.0000 C   0  0  0  0  0  0  0  0  0  0  0  0
   -5.4928   -2.0455    0.0000 C   0  0  0  0  0  0  0  0  0  0  0  0
   -6.4484   -2.3403    0.0000 C   0  0  0  0  0  0  0  0  0  0  0  0
   -7.1815   -1.6601    0.0000 C   0  0  0  0  0  0  0  0  0  0  0  0
   -6.9589   -0.6852    0.0000 C   0  0  0  0  0  0  0  0  0  0  0  0
   -6.0034   -0.3904    0.0000 C   0  0  0  0  0  0  0  0  0  0  0  0
   -4.1657    0.2130    0.0000 C   0  0  0  0  0  0  0  0  0  0  0  0
   -5.0317    0.7130    0.0000 C   0  0  0  0  0  0  0  0  0  0  0  0
   -5.0317    1.7130    0.0000 C   0  0  0  0  0  0  0  0  0  0  0  0
   -5.8977    2.2130    0.0000 Cl  0  0  0  0  0  0  0  0  0  0  0  0
   -4.1657    2.2130    0.0000 C   0  0  0  0  0  0  0  0  0  0  0  0
   -3.2997    1.7130    0.0000 C   0  0  0  0  0  0  0  0  0  0  0  0
   -3.2997    0.7130    0.0000 C   0  0  0  0  0  0  0  0  0  0  0  0
   -2.3688    0.3476    0.0000 N   0  0  0  0  0  0  0  0  0  0  0  0
   -1.6357    1.0278    0.0000 C   0  0  0  0  0  0  0  0  0  0  0  0
   -0.6802    0.7331    0.0000 C   0  0  0  0  0  0  0  0  0  0  0  0
    0.2948    0.9556    0.0000 C   0  0  0  0  0  0  0  0  0  0  0  0
    0.0000   -0.0000    0.0000 C   0  0  0  0  0  0  0  0  0  0  0  0
  1  2  2  0  0  0  0
  2 19  1  0  0  0  0
  2  3  1  0  0  0  0
  3  4  1  0  0  0  0
  4  5  2  0  0  0  0
  5  6  1  0  0  0  0
  5 12  1  0  0  0  0
  6 11  1  0  0  0  0
  6  7  2  0  0  0  0
  7  8  1  0  0  0  0
  8  9  2  0  0  0  0
  9 10  1  0  0  0  0
 10 11  2  0  0  0  0
 12 18  1  0  0  0  0
 12 13  2  0  0  0  0
 13 14  1  0  0  0  0
 14 15  1  0  0  0  0
 14 16  2  0  0  0  0
 16 17  1  0  0  0  0
 17 18  2  0  0  0  0
 18 19  1  0  0  0  0
 19 20  1  0  0  0  0
 20 21  1  0  0  0  0
 21 23  1  0  0  0  0
 21 22  1  0  0  0  0
 22 23  1  0  0  0  0
M  END
$$$$

 OpenBabel10082008492D

 22 23  0  0  0  0  0  0  0  0999 V2000
    1.4945   -0.9706    0.0000 C   0  0  0  0  0  0  0  0  0  0  0  0
    0.5000   -0.8660    0.0000 C   0  0  0  0  0  0  0  0  0  0  0  0
   -0.1691   -1.6092    0.0000 N   0  0  0  0  0  0  0  0  0  0  0  0
   -1.0827   -1.2024    0.0000 C   0  0  0  0  0  0  0  0  0  0  0  0
   -1.9487   -1.7024    0.0000 C   0  0  0  0  0  0  0  0  0  0  0  0
   -1.9487   -2.7024    0.0000 C   0  0  0  0  0  0  0  0  0  0  0  0
   -2.8147   -3.2024    0.0000 C   0  0  0  0  0  0  0  0  0  0  0  0
   -3.6808   -2.7024    0.0000 C   0  0  0  0  0  0  0  0  0  0  0  0
   -4.5468   -3.2024    0.0000 O   0  0  0  0  0  0  0  0  0  0  0  0
   -4.5468   -4.2024    0.0000 C   0  0  0  0  0  0  0  0  0  0  0  0
   -5.4128   -4.7024    0.0000 C   0  0  0  0  0  0  0  0  0  0  0  0
   -6.2788   -4.2024    0.0000 C   0  0  0  0  0  0  0  0  0  0  0  0
   -5.4128   -5.7024    0.0000 C   0  0  0  0  0  0  0  0  0  0  0  0
   -3.6808   -1.7024    0.0000 C   0  0  0  0  0  0  0  0  0  0  0  0
   -4.5468   -1.2024    0.0000 C   0  0  0  0  0  0  0  0  0  0  0  0
   -5.4128   -0.7024    0.0000 N   0  0  0  0  0  0  0  0  0  0  0  0
   -2.8147   -1.2024    0.0000 C   0  0  0  0  0  0  0  0  0  0  0  0
   -0.9781   -0.2079    0.0000 S   0  0  0  0  0  0  0  0  0  0  0  0
   -0.0000   -0.0000    0.0000 C   0  0  0  0  0  0  0  0  0  0  0  0
    0.4067    0.9135    0.0000 C   0  0  0  0  0  0  0  0  0  0  0  0
    1.4013    1.0181    0.0000 O   0  0  0  0  0  0  0  0  0  0  0  0
   -0.1810    1.7226    0.0000 O   0  0  0  0  0  0  0  0  0  0  0  0
  1  2  1  0  0  0  0
  2 19  2  0  0  0  0
  2  3  1  0  0  0  0
  3  4  2  0  0  0  0
  4  5  1  0  0  0  0
  4 18  1  0  0  0  0
  5 17  1  0  0  0  0
  5  6  2  0  0  0  0
  6  7  1  0  0  0  0
  7  8  2  0  0  0  0
  8  9  1  0  0  0  0
  8 14  1  0  0  0  0
  9 10  1  0  0  0  0
 10 11  1  0  0  0  0
 11 12  1  0  0  0  0
 11 13  1  0  0  0  0
 14 15  1  0  0  0  0
 14 17  2  0  0  0  0
 15 16  3  0  0  0  0
 18 19  1  0  0  0  0
 19 20  1  0  0  0  0
 20 21  2  0  0  0  0
 20 22  1  0  0  0  0
M  END
$$$$

 OpenBabel10082008492D

 29 30  0  0  0  0  0  0  0  0999 V2000
   -6.0000   -4.4641    0.0000 C   0  0  0  0  0  0  0  0  0  0  0  0
   -5.5000   -3.5981    0.0000 N   0  0  0  0  0  0  0  0  0  0  0  0
   -4.5000   -3.5981    0.0000 C   0  0  0  0  0  0  0  0  0  0  0  0
   -4.0000   -4.4641    0.0000 C   0  0  0  0  0  0  0  0  0  0  0  0
   -3.0000   -4.4641    0.0000 O   0  0  0  0  0  0  0  0  0  0  0  0
   -2.5000   -3.5981    0.0000 C   0  0  0  0  0  0  0  0  0  0  0  0
   -3.0000   -2.7321    0.0000 C   0  0  0  0  0  0  0  0  0  0  0  0
   -2.5000   -1.8660    0.0000 C   0  0  0  0  0  0  0  0  0  0  0  0
   -1.5000   -1.8660    0.0000 C   0  0  0  0  0  0  0  0  0  0  0  0
   -1.0000   -1.0000    0.0000 N   0  0  0  0  0  0  0  0  0  0  0  0
   -0.0000   -1.0000    0.0000 S   0  0  0  0  0  0  0  0  0  0  0  0
   -0.0000   -2.0000    0.0000 C   0  0  0  0  0  0  0  0  0  0  0  0
    1.0000   -1.0000    0.0000 O   0  0  0  0  0  0  0  0  0  0  0  0
    0.0000    0.0000    0.0000 O   0  0  0  0  0  0  0  0  0  0  0  0
   -1.0000   -2.7321    0.0000 C   0  0  0  0  0  0  0  0  0  0  0  0
   -1.5000   -3.5981    0.0000 C   0  0  0  0  0  0  0  0  0  0  0  0
   -6.0000   -2.7321    0.0000 C   0  0  0  0  0  0  0  0  0  0  0  0
   -7.0000   -2.7321    0.0000 C   0  0  0  0  0  0  0  0  0  0  0  0
   -7.5000   -1.8660    0.0000 C   0  0  0  0  0  0  0  0  0  0  0  0
   -8.5000   -1.8660    0.0000 C   0  0  0  0  0  0  0  0  0  0  0  0
   -9.0000   -1.0000    0.0000 C   0  0  0  0  0  0  0  0  0  0  0  0
   -8.5000   -0.1340    0.0000 C   0  0  0  0  0  0  0  0  0  0  0  0
   -9.0000    0.7321    0.0000 N   0  0  0  0  0  0  0  0  0  0  0  0
  -10.0000    0.7321    0.0000 S   0  0  0  0  0  0  0  0  0  0  0  0
  -10.0000    1.7321    0.0000 C   0  0  0  0  0  0  0  0  0  0  0  0
  -11.0000    0.7321    0.0000 O   0  0  0  0  0  0  0  0  0  0  0  0
  -10.0000   -0.2679    0.0000 O   0  0  0  0  0  0  0  0  0  0  0  0
   -7.5000   -0.1340    0.0000 C   0  0  0  0  0  0  0  0  0  0  0  0
   -7.0000   -1.0000    0.0000 C   0  0  0  0  0  0  0  0  0  0  0  0
  1  2  1  0  0  0  0
  2  3  1  0  0  0  0
  2 17  1  0  0  0  0
  3  4  1  0  0  0  0
  4  5  1  0  0  0  0
  5  6  1  0  0  0  0
  6 16  1  0  0  0  0
  6  7  2  0  0  0  0
  7  8  1  0  0  0  0
  8  9  2  0  0  0  0
  9 10  1  0  0  0  0
  9 15  1  0  0  0  0
 10 11  1  0  0  0  0
 11 12  1  0  0  0  0
 11 13  2  0  0  0  0
 11 14  2  0  0  0  0
 15 16  2  0  0  0  0
 17 18  1  0  0  0  0
 18 19  1  0  0  0  0
 19 29  1  0  0  0  0
 19 20  2  0  0  0  0
 20 21  1  0  0  0  0
 21 22  2  0  0  0  0
 22 23  1  0  0  0  0
 22 28  1  0  0  0  0
 23 24  1  0  0  0  0
 24 25  1  0  0  0  0
 24 26  2  0  0  0  0
 24 27  2  0  0  0  0
 28 29  2  0  0  0  0
M  END
$$$$

 OpenBabel10082008492D

 23 25  0  0  1  0  0  0  0  0999 V2000
   -1.2985   -0.0340    0.0000 C   0  0  0  0  0  0  0  0  0  0  0  0
   -0.6691    0.7431    0.0000 N   0  3  0  0  0  0  0  0  0  0  0  0
   -1.3055    1.5145    0.0000 C   0  0  0  0  0  0  0  0  0  0  0  0
   -0.1691    1.6092    0.0000 C   0  0  0  0  0  0  0  0  0  0  0  0
    0.8090    1.4013    0.0000 C   0  0  0  0  0  0  0  0  0  0  0  0
    0.9135    0.4067    0.0000 C   0  0  3  0  0  0  0  0  0  0  0  0
    1.7796   -0.0933    0.0000 O   0  0  0  0  0  0  0  0  0  0  0  0
    2.6456    0.4067    0.0000 C   0  0  0  0  0  0  0  0  0  0  0  0
    2.6456    1.4067    0.0000 O   0  0  0  0  0  0  0  0  0  0  0  0
    3.5116   -0.0933    0.0000 C   0  0  3  0  0  0  0  0  0  0  0  0
    4.0116    0.7728    0.0000 O   0  0  0  0  0  0  0  0  0  0  0  0
    4.3776   -0.5933    0.0000 C   0  0  0  0  0  0  0  0  0  0  0  0
    4.3776   -1.5933    0.0000 C   0  0  0  0  0  0  0  0  0  0  0  0
    5.2437   -2.0933    0.0000 C   0  0  0  0  0  0  0  0  0  0  0  0
    6.1097   -1.5933    0.0000 C   0  0  0  0  0  0  0  0  0  0  0  0
    6.1097   -0.5933    0.0000 C   0  0  0  0  0  0  0  0  0  0  0  0
    5.2437   -0.0933    0.0000 C   0  0  0  0  0  0  0  0  0  0  0  0
    3.0116   -0.9593    0.0000 C   0  0  0  0  0  0  0  0  0  0  0  0
    2.0171   -1.0638    0.0000 C   0  0  0  0  0  0  0  0  0  0  0  0
    1.8092   -2.0420    0.0000 C   0  0  0  0  0  0  0  0  0  0  0  0
    2.6752   -2.5420    0.0000 C   0  0  0  0  0  0  0  0  0  0  0  0
    3.4184   -1.8728    0.0000 C   0  0  0  0  0  0  0  0  0  0  0  0
    0.0000    0.0000    0.0000 C   0  0  0  0  0  0  0  0  0  0  0  0
  1  2  1  0  0  0  0
  2 23  1  0  0  0  0
  2  3  1  0  0  0  0
  2  4  1  0  0  0  0
  4  5  1  0  0  0  0
  5  6  1  0  0  0  0
  6  7  1  0  0  0  0
  6 23  1  0  0  0  0
  7  8  1  0  0  0  0
  8  9  2  0  0  0  0
  8 10  1  0  0  0  0
 10 11  1  0  0  0  0
 10 12  1  0  0  0  0
 10 18  1  0  0  0  0
 12 17  1  0  0  0  0
 12 13  2  0  0  0  0
 13 14  1  0  0  0  0
 14 15  2  0  0  0  0
 15 16  1  0  0  0  0
 16 17  2  0  0  0  0
 18 22  1  0  0  0  0
 18 19  1  0  0  0  0
 19 20  1  0  0  0  0
 20 21  1  0  0  0  0
 21 22  1  0  0  0  0
M  CHG  1   2   1
M  END
$$$$

 OpenBabel10082008492D

 16 17  0  0  1  0  0  0  0  0999 V2000
   -1.4538    2.3090    0.0000 C   0  0  0  0  0  0  0  0  0  0  0  0
   -1.4538    1.3090    0.0000 C   0  0  0  0  0  0  0  0  0  0  0  0
   -0.5878    0.8090    0.0000 C   0  0  3  0  0  0  0  0  0  0  0  0
   -1.4538    0.3090    0.0000 C   0  0  0  0  0  0  0  0  0  0  0  0
   -1.4538   -0.6910    0.0000 C   0  0  0  0  0  0  0  0  0  0  0  0
   -2.3198   -1.1910    0.0000 C   0  0  0  0  0  0  0  0  0  0  0  0
   -3.1859   -0.6910    0.0000 C   0  0  0  0  0  0  0  0  0  0  0  0
   -3.1859    0.3090    0.0000 C   0  0  0  0  0  0  0  0  0  0  0  0
   -2.3198    0.8090    0.0000 C   0  0  0  0  0  0  0  0  0  0  0  0
    0.0000    1.6180    0.0000 N   0  0  0  0  0  0  0  0  0  0  0  0
    0.9511    1.3090    0.0000 C   0  0  0  0  0  0  0  0  0  0  0  0
    1.7601    1.8968    0.0000 O   0  0  0  0  0  0  0  0  0  0  0  0
    0.9511    0.3090    0.0000 N   0  0  0  0  0  0  0  0  0  0  0  0
    1.7601   -0.2788    0.0000 C   0  0  0  0  0  0  0  0  0  0  0  0
    0.0000   -0.0000    0.0000 C   0  0  0  0  0  0  0  0  0  0  0  0
   -0.3090   -0.9511    0.0000 O   0  0  0  0  0  0  0  0  0  0  0  0
  1  2  1  0  0  0  0
  2  3  1  0  0  0  0
  3 15  1  0  0  0  0
  3  4  1  0  0  0  0
  3 10  1  0  0  0  0
  4  9  1  0  0  0  0
  4  5  2  0  0  0  0
  5  6  1  0  0  0  0
  6  7  2  0  0  0  0
  7  8  1  0  0  0  0
  8  9  2  0  0  0  0
 10 11  1  0  0  0  0
 11 12  2  0  0  0  0
 11 13  1  0  0  0  0
 13 14  1  0  0  0  0
 13 15  1  0  0  0  0
 15 16  2  0  0  0  0
M  END
$$$$

 OpenBabel10082008492D

 26 28  0  0  1  0  0  0  0  0999 V2000
   -0.8660    1.5000    0.0000 C   0  0  0  0  0  0  0  0  0  0  0  0
   -0.0000    1.0000    0.0000 N   0  0  0  0  0  0  0  0  0  0  0  0
    0.8660    1.5000    0.0000 C   0  0  0  0  0  0  0  0  0  0  0  0
    0.8660    2.5000    0.0000 O   0  0  0  0  0  0  0  0  0  0  0  0
    1.7321    1.0000    0.0000 C   0  0  0  0  0  0  0  0  0  0  0  0
    1.7321    0.0000    0.0000 C   0  0  0  0  0  0  0  0  0  0  0  0
    2.5981   -0.5000    0.0000 N   0  0  0  0  0  0  0  0  0  0  0  0
    2.5981   -1.5000    0.0000 C   0  0  0  0  0  0  0  0  0  0  0  0
    3.4641   -2.0000    0.0000 C   0  0  0  0  0  0  0  0  0  0  0  0
    4.3301   -1.5000    0.0000 C   0  0  0  0  0  0  0  0  0  0  0  0
    4.3301   -0.5000    0.0000 C   0  0  1  0  0  0  0  0  0  0  0  0
    4.8301    0.3660    0.0000 H   0  0  0  0  0  0  0  0  0  0  0  0
    5.3301   -0.5000    0.0000 N   0  0  0  0  0  0  0  0  0  0  0  0
    3.4641    0.0000    0.0000 C   0  0  0  0  0  0  0  0  0  0  0  0
    0.8660   -0.5000    0.0000 N   0  0  0  0  0  0  0  0  0  0  0  0
    0.8660   -1.5000    0.0000 C   0  0  0  0  0  0  0  0  0  0  0  0
    0.0000   -2.0000    0.0000 C   0  0  0  0  0  0  0  0  0  0  0  0
   -0.8660   -1.5000    0.0000 C   0  0  0  0  0  0  0  0  0  0  0  0
   -1.7321   -2.0000    0.0000 C   0  0  0  0  0  0  0  0  0  0  0  0
   -1.7321   -3.0000    0.0000 C   0  0  0  0  0  0  0  0  0  0  0  0
   -0.8660   -3.5000    0.0000 C   0  0  0  0  0  0  0  0  0  0  0  0
    0.0000   -3.0000    0.0000 C   0  0  0  0  0  0  0  0  0  0  0  0
    0.8660   -3.5000    0.0000 C   0  0  0  0  0  0  0  0  0  0  0  0
    1.7321   -4.0000    0.0000 N   0  0  0  0  0  0  0  0  0  0  0  0
    0.0000   -0.0000    0.0000 C   0  0  0  0  0  0  0  0  0  0  0  0
   -0.8660   -0.5000    0.0000 O   0  0  0  0  0  0  0  0  0  0  0  0
  1  2  1  0  0  0  0
  2 25  1  0  0  0  0
  2  3  1  0  0  0  0
  3  4  2  0  0  0  0
  3  5  1  0  0  0  0
  5  6  2  0  0  0  0
  6  7  1  0  0  0  0
  6 15  1  0  0  0  0
  7 14  1  0  0  0  0
  7  8  1  0  0  0  0
  8  9  1  0  0  0  0
  9 10  1  0  0  0  0
 10 11  1  0  0  0  0
 11 12  1  1  0  0  0
 11 13  1  0  0  0  0
 11 14  1  0  0  0  0
 15 16  1  0  0  0  0
 15 25  1  0  0  0  0
 16 17  1  0  0  0  0
 17 22  1  0  0  0  0
 17 18  2  0  0  0  0
 18 19  1  0  0  0  0
 19 20  2  0  0  0  0
 20 21  1  0  0  0  0
 21 22  2  0  0  0  0
 22 23  1  0  0  0  0
 23 24  3  0  0  0  0
 25 26  2  0  0  0  0
M  END
$$$$

 OpenBabel10082008492D

 31 33  0  0  1  0  0  0  0  0999 V2000
   -2.5981    5.5000    0.0000 C   0  0  0  0  0  0  0  0  0  0  0  0
   -2.5981    4.5000    0.0000 O   0  0  0  0  0  0  0  0  0  0  0  0
   -1.7321    4.0000    0.0000 C   0  0  0  0  0  0  0  0  0  0  0  0
   -0.8660    4.5000    0.0000 C   0  0  0  0  0  0  0  0  0  0  0  0
   -0.0000    4.0000    0.0000 C   0  0  0  0  0  0  0  0  0  0  0  0
   -0.0000    3.0000    0.0000 C   0  0  0  0  0  0  0  0  0  0  0  0
   -0.8660    2.5000    0.0000 C   0  0  0  0  0  0  0  0  0  0  0  0
   -1.7321    3.0000    0.0000 C   0  0  0  0  0  0  0  0  0  0  0  0
   -2.5981    2.5000    0.0000 O   0  0  0  0  0  0  0  0  0  0  0  0
   -2.5981    1.5000    0.0000 C   0  0  0  0  0  0  0  0  0  0  0  0
   -1.7321    1.0000    0.0000 C   0  0  3  0  0  0  0  0  0  0  0  0
   -1.7321    0.0000    0.0000 O   0  0  0  0  0  0  0  0  0  0  0  0
   -0.8660    1.5000    0.0000 C   0  0  0  0  0  0  0  0  0  0  0  0
   -0.0000    1.0000    0.0000 N   0  0  0  0  0  0  0  0  0  0  0  0
    0.8660    1.5000    0.0000 C   0  0  0  0  0  0  0  0  0  0  0  0
    1.7321    1.0000    0.0000 C   0  0  0  0  0  0  0  0  0  0  0  0
    1.7321    0.0000    0.0000 N   0  0  0  0  0  0  0  0  0  0  0  0
    2.5981   -0.5000    0.0000 C   0  0  0  0  0  0  0  0  0  0  0  0
    3.4641    0.0000    0.0000 C   0  0  0  0  0  0  0  0  0  0  0  0
    4.3301   -0.5000    0.0000 O   0  0  0  0  0  0  0  0  0  0  0  0
    3.4641    1.0000    0.0000 N   0  0  0  0  0  0  0  0  0  0  0  0
    4.3301    1.5000    0.0000 C   0  0  0  0  0  0  0  0  0  0  0  0
    4.3301    2.5000    0.0000 C   0  0  0  0  0  0  0  0  0  0  0  0
    3.4641    3.0000    0.0000 C   0  0  0  0  0  0  0  0  0  0  0  0
    5.1962    3.0000    0.0000 C   0  0  0  0  0  0  0  0  0  0  0  0
    6.0622    2.5000    0.0000 C   0  0  0  0  0  0  0  0  0  0  0  0
    6.0622    1.5000    0.0000 C   0  0  0  0  0  0  0  0  0  0  0  0
    5.1962    1.0000    0.0000 C   0  0  0  0  0  0  0  0  0  0  0  0
    5.1962    0.0000    0.0000 C   0  0  0  0  0  0  0  0  0  0  0  0
    0.8660   -0.5000    0.0000 C   0  0  0  0  0  0  0  0  0  0  0  0
    0.0000   -0.0000    0.0000 C   0  0  0  0  0  0  0  0  0  0  0  0
  1  2  1  0  0  0  0
  2  3  1  0  0  0  0
  3  8  1  0  0  0  0
  3  4  2  0  0  0  0
  4  5  1  0  0  0  0
  5  6  2  0  0  0  0
  6  7  1  0  0  0  0
  7  8  2  0  0  0  0
  8  9  1  0  0  0  0
  9 10  1  0  0  0  0
 10 11  1  0  0  0  0
 11 12  1  0  0  0  0
 11 13  1  0  0  0  0
 13 14  1  0  0  0  0
 14 31  1  0  0  0  0
 14 15  1  0  0  0  0
 15 16  1  0  0  0  0
 16 17  1  0  0  0  0
 17 18  1  0  0  0  0
 17 30  1  0  0  0  0
 18 19  1  0  0  0  0
 19 20  2  0  0  0  0
 19 21  1  0  0  0  0
 21 22  1  0  0  0  0
 22 28  1  0  0  0  0
 22 23  2  0  0  0  0
 23 24  1  0  0  0  0
 23 25  1  0  0  0  0
 25 26  2  0  0  0  0
 26 27  1  0  0  0  0
 27 28  2  0  0  0  0
 28 29  1  0  0  0  0
 30 31  1  0  0  0  0
M  END
$$$$

 OpenBabel10082008492D

 16 16  0  0  0  0  0  0  0  0999 V2000
    2.5981    2.5000    0.0000 C   0  0  0  0  0  0  0  0  0  0  0  0
    1.7321    3.0000    0.0000 C   0  0  0  0  0  0  0  0  0  0  0  0
    0.8660    2.5000    0.0000 O   0  0  0  0  0  0  0  0  0  0  0  0
    0.8660    1.5000    0.0000 C   0  0  0  0  0  0  0  0  0  0  0  0
    0.0000    1.0000    0.0000 O   0  0  0  0  0  0  0  0  0  0  0  0
    1.7321    1.0000    0.0000 C   0  0  0  0  0  0  0  0  0  0  0  0
    2.7321    1.0000    0.0000 C   0  0  0  0  0  0  0  0  0  0  0  0
    2.2321    1.8660    0.0000 C   0  0  0  0  0  0  0  0  0  0  0  0
    1.7321    0.0000    0.0000 O   0  0  0  0  0  0  0  0  0  0  0  0
    0.8660   -0.5000    0.0000 C   0  0  0  0  0  0  0  0  0  0  0  0
    0.8660   -1.5000    0.0000 C   0  0  0  0  0  0  0  0  0  0  0  0
    0.0000   -2.0000    0.0000 C   0  0  0  0  0  0  0  0  0  0  0  0
   -0.8660   -1.5000    0.0000 C   0  0  0  0  0  0  0  0  0  0  0  0
   -1.7321   -2.0000    0.0000 Cl  0  0  0  0  0  0  0  0  0  0  0  0
   -0.8660   -0.5000    0.0000 C   0  0  0  0  0  0  0  0  0  0  0  0
   -0.0000   -0.0000    0.0000 C   0  0  0  0  0  0  0  0  0  0  0  0
  1  2  1  0  0  0  0
  2  3  1  0  0  0  0
  3  4  1  0  0  0  0
  4  5  2  0  0  0  0
  4  6  1  0  0  0  0
  6  7  1  0  0  0  0
  6  8  1  0  0  0  0
  6  9  1  0  0  0  0
  9 10  1  0  0  0  0
 10 16  1  0  0  0  0
 10 11  2  0  0  0  0
 11 12  1  0  0  0  0
 12 13  2  0  0  0  0
 13 14  1  0  0  0  0
 13 15  1  0  0  0  0
 15 16  2  0  0  0  0
M  END
$$$$

 OpenBabel10082008492D

 31 35  0  0  1  0  0  0  0  0999 V2000
    2.5000    0.8660    0.0000 C   0  0  0  0  0  0  0  0  0  0  0  0
    1.5000    0.8660    0.0000 O   0  0  0  0  0  0  0  0  0  0  0  0
    1.0000   -0.0000    0.0000 C   0  0  0  0  0  0  0  0  0  0  0  0
    1.5000   -0.8660    0.0000 C   0  0  0  0  0  0  0  0  0  0  0  0
    2.5000   -0.8660    0.0000 N   0  0  0  0  0  0  0  0  0  0  0  0
    3.0878   -0.0570    0.0000 C   0  0  0  0  0  0  0  0  0  0  0  0
    4.0388   -0.3660    0.0000 C   0  0  2  0  0  0  0  0  0  0  0  0
    4.4456    0.5475    0.0000 H   0  0  0  0  0  0  0  0  0  0  0  0
    4.9049    0.1340    0.0000 C   0  0  0  0  0  0  0  0  0  0  0  0
    5.7709   -0.3660    0.0000 C   0  0  0  0  0  0  0  0  0  0  0  0
    5.7709   -1.3660    0.0000 C   0  0  0  0  0  0  0  0  0  0  0  0
    4.9049   -1.8660    0.0000 N   0  0  0  0  0  0  0  0  0  0  0  0
    4.0388   -1.3660    0.0000 C   0  0  2  0  0  0  0  0  0  0  0  0
    4.4456   -2.2796    0.0000 H   0  0  0  0  0  0  0  0  0  0  0  0
    3.0878   -1.6750    0.0000 C   0  0  0  0  0  0  0  0  0  0  0  0
    1.0000   -1.7321    0.0000 C   0  0  0  0  0  0  0  0  0  0  0  0
    1.5000   -2.5981    0.0000 F   0  0  0  0  0  0  0  0  0  0  0  0
    0.0000   -1.7321    0.0000 C   0  0  0  0  0  0  0  0  0  0  0  0
   -0.5000   -0.8660    0.0000 C   0  0  0  0  0  0  0  0  0  0  0  0
   -1.5000   -0.8660    0.0000 C   0  0  0  0  0  0  0  0  0  0  0  0
   -2.0000   -1.7321    0.0000 O   0  0  0  0  0  0  0  0  0  0  0  0
   -2.0000   -0.0000    0.0000 C   0  0  0  0  0  0  0  0  0  0  0  0
   -3.0000   -0.0000    0.0000 C   0  0  0  0  0  0  0  0  0  0  0  0
   -3.5000    0.8660    0.0000 O   0  0  0  0  0  0  0  0  0  0  0  0
   -3.5000   -0.8660    0.0000 O   0  0  0  0  0  0  0  0  0  0  0  0
   -1.5000    0.8660    0.0000 C   0  0  0  0  0  0  0  0  0  0  0  0
   -0.5000    0.8660    0.0000 N   0  0  0  0  0  0  0  0  0  0  0  0
    0.0000    1.7321    0.0000 C   0  0  0  0  0  0  0  0  0  0  0  0
    0.0000    2.7321    0.0000 C   0  0  0  0  0  0  0  0  0  0  0  0
    0.8660    2.2321    0.0000 C   0  0  0  0  0  0  0  0  0  0  0  0
    0.0000   -0.0000    0.0000 C   0  0  0  0  0  0  0  0  0  0  0  0
  1  2  1  0  0  0  0
  2  3  1  0  0  0  0
  3 31  1  0  0  0  0
  3  4  2  0  0  0  0
  4  5  1  0  0  0  0
  4 16  1  0  0  0  0
  5 15  1  0  0  0  0
  5  6  1  0  0  0  0
  6  7  1  0  0  0  0
  7  8  1  1  0  0  0
  7 13  1  0  0  0  0
  7  9  1  0  0  0  0
  9 10  1  0  0  0  0
 10 11  1  0  0  0  0
 11 12  1  0  0  0  0
 12 13  1  0  0  0  0
 13 14  1  1  0  0  0
 13 15  1  0  0  0  0
 16 17  1  0  0  0  0
 16 18  2  0  0  0  0
 18 19  1  0  0  0  0
 19 31  2  0  0  0  0
 19 20  1  0  0  0  0
 20 21  2  0  0  0  0
 20 22  1  0  0  0  0
 22 23  1  0  0  0  0
 22 26  2  0  0  0  0
 23 24  2  0  0  0  0
 23 25  1  0  0  0  0
 26 27  1  0  0  0  0
 27 28  1  0  0  0  0
 27 31  1  0  0  0  0
 28 30  1  0  0  0  0
 28 29  1  0  0  0  0
 29 30  1  0  0  0  0
M  END
$$$$

 OpenBabel10082008492D

 23 25  0  0  1  0  0  0  0  0999 V2000
    3.4641   -1.0000    0.0000 C   0  0  0  0  0  0  0  0  0  0  0  0
    3.4641    0.0000    0.0000 O   0  0  0  0  0  0  0  0  0  0  0  0
    2.5981    0.5000    0.0000 C   0  0  0  0  0  0  0  0  0  0  0  0
    1.7321    0.0000    0.0000 C   0  0  0  0  0  0  0  0  0  0  0  0
    0.8660    0.5000    0.0000 C   0  0  0  0  0  0  0  0  0  0  0  0
    0.8660    1.5000    0.0000 C   0  0  0  0  0  0  0  0  0  0  0  0
    1.7321    2.0000    0.0000 C   0  0  0  0  0  0  0  0  0  0  0  0
    2.5981    1.5000    0.0000 C   0  0  0  0  0  0  0  0  0  0  0  0
    3.4641    2.0000    0.0000 O   0  0  0  0  0  0  0  0  0  0  0  0
    3.4641    3.0000    0.0000 C   0  0  0  0  0  0  0  0  0  0  0  0
    0.0000    2.0000    0.0000 C   0  0  3  0  0  0  0  0  0  0  0  0
    0.0000    3.0000    0.0000 C   0  0  0  0  0  0  0  0  0  0  0  0
   -0.8660    3.5000    0.0000 C   0  0  0  0  0  0  0  0  0  0  0  0
   -0.8660    4.5000    0.0000 O   0  0  0  0  0  0  0  0  0  0  0  0
   -1.7321    3.0000    0.0000 C   0  0  3  0  0  0  0  0  0  0  0  0
   -2.5981    3.5000    0.0000 C   0  0  0  0  0  0  0  0  0  0  0  0
   -3.4641    3.0000    0.0000 C   0  0  0  0  0  0  0  0  0  0  0  0
   -4.3301    3.5000    0.0000 C   0  0  0  0  0  0  0  0  0  0  0  0
   -3.4641    2.0000    0.0000 C   0  0  0  0  0  0  0  0  0  0  0  0
   -1.7321    2.0000    0.0000 C   0  0  0  0  0  0  0  0  0  0  0  0
   -0.8660    1.5000    0.0000 N   0  0  3  0  0  0  0  0  0  0  0  0
   -0.8660    0.5000    0.0000 C   0  0  0  0  0  0  0  0  0  0  0  0
    0.0000    0.0000    0.0000 C   0  0  0  0  0  0  0  0  0  0  0  0
  1  2  1  0  0  0  0
  2  3  1  0  0  0  0
  3  8  1  0  0  0  0
  3  4  2  0  0  0  0
  4  5  1  0  0  0  0
  5 23  1  0  0  0  0
  5  6  2  0  0  0  0
  6  7  1  0  0  0  0
  6 11  1  0  0  0  0
  7  8  2  0  0  0  0
  8  9  1  0  0  0  0
  9 10  1  0  0  0  0
 11 21  1  0  0  0  0
 11 12  1  0  0  0  0
 12 13  1  0  0  0  0
 13 14  2  0  0  0  0
 13 15  1  0  0  0  0
 15 16  1  0  0  0  0
 15 20  1  0  0  0  0
 16 17  1  0  0  0  0
 17 18  1  0  0  0  0
 17 19  1  0  0  0  0
 20 21  1  0  0  0  0
 21 22  1  0  0  0  0
 22 23  1  0  0  0  0
M  END
$$$$

 OpenBabel10082008492D

 34 36  0  0  1  0  0  0  0  0999 V2000
    2.5981   -4.5000    0.0000 C   0  0  0  0  0  0  0  0  0  0  0  0
    1.7321   -4.0000    0.0000 C   0  0  0  0  0  0  0  0  0  0  0  0
    1.7321   -3.0000    0.0000 C   0  0  0  0  0  0  0  0  0  0  0  0
    0.8660   -2.5000    0.0000 C   0  0  0  0  0  0  0  0  0  0  0  0
   -0.0000   -3.0000    0.0000 C   0  0  0  0  0  0  0  0  0  0  0  0
   -0.0000   -4.0000    0.0000 O   0  0  0  0  0  0  0  0  0  0  0  0
   -0.8660   -2.5000    0.0000 N   0  0  0  0  0  0  0  0  0  0  0  0
   -0.8660   -1.5000    0.0000 C   0  0  0  0  0  0  0  0  0  0  0  0
   -0.0000   -1.0000    0.0000 C   0  0  0  0  0  0  0  0  0  0  0  0
    0.8660   -1.5000    0.0000 C   0  0  0  0  0  0  0  0  0  0  0  0
    1.7321   -1.0000    0.0000 C   0  0  0  0  0  0  0  0  0  0  0  0
    1.7321   -0.0000    0.0000 C   0  0  0  0  0  0  0  0  0  0  0  0
    2.5981    0.5000    0.0000 C   0  0  0  0  0  0  0  0  0  0  0  0
    3.4641   -0.0000    0.0000 C   0  0  0  0  0  0  0  0  0  0  0  0
    4.3301    0.5000    0.0000 C   0  0  0  0  0  0  0  0  0  0  0  0
    4.3301    1.5000    0.0000 C   0  0  0  0  0  0  0  0  0  0  0  0
    3.4641    2.0000    0.0000 C   0  0  0  0  0  0  0  0  0  0  0  0
    2.5981    1.5000    0.0000 C   0  0  0  0  0  0  0  0  0  0  0  0
    1.7321    2.0000    0.0000 C   0  0  0  0  0  0  0  0  0  0  0  0
    0.8185    1.5933    0.0000 N   0  0  0  0  0  0  0  0  0  0  0  0
    0.1494    2.3364    0.0000 N   0  0  0  0  0  0  0  0  0  0  0  0
    0.6494    3.2024    0.0000 N   0  0  0  0  0  0  0  0  0  0  0  0
    1.6275    2.9945    0.0000 N   0  0  0  0  0  0  0  0  0  0  0  0
    2.3707    3.6637    0.0000 H   0  0  0  0  0  0  0  0  0  0  0  0
    0.8660    0.5000    0.0000 C   0  0  0  0  0  0  0  0  0  0  0  0
    0.0000    0.0000    0.0000 C   0  0  0  0  0  0  0  0  0  0  0  0
   -1.7321   -3.0000    0.0000 C   0  0  2  0  0  0  0  0  0  0  0  0
   -1.2321   -3.8660    0.0000 H   0  0  0  0  0  0  0  0  0  0  0  0
   -2.5981   -3.5000    0.0000 C   0  0  0  0  0  0  0  0  0  0  0  0
   -2.5981   -4.5000    0.0000 O   0  0  0  0  0  0  0  0  0  0  0  0
   -3.4641   -3.0000    0.0000 O   0  0  0  0  0  0  0  0  0  0  0  0
   -2.2321   -2.1340    0.0000 C   0  0  0  0  0  0  0  0  0  0  0  0
   -3.2321   -2.1340    0.0000 C   0  0  0  0  0  0  0  0  0  0  0  0
   -1.7321   -1.2679    0.0000 C   0  0  0  0  0  0  0  0  0  0  0  0
  1  2  1  0  0  0  0
  2  3  1  0  0  0  0
  3  4  1  0  0  0  0
  4  5  1  0  0  0  0
  5  6  2  0  0  0  0
  5  7  1  0  0  0  0
  7  8  1  0  0  0  0
  7 27  1  0  0  0  0
  8  9  1  0  0  0  0
  9 26  1  0  0  0  0
  9 10  2  0  0  0  0
 10 11  1  0  0  0  0
 11 12  2  0  0  0  0
 12 13  1  0  0  0  0
 12 25  1  0  0  0  0
 13 18  1  0  0  0  0
 13 14  2  0  0  0  0
 14 15  1  0  0  0  0
 15 16  2  0  0  0  0
 16 17  1  0  0  0  0
 17 18  2  0  0  0  0
 18 19  1  0  0  0  0
 19 23  1  0  0  0  0
 19 20  2  0  0  0  0
 20 21  1  0  0  0  0
 21 22  2  0  0  0  0
 22 23  1  0  0  0  0
 23 24  1  0  0  0  0
 25 26  2  0  0  0  0
 27 28  1  1  0  0  0
 27 29  1  0  0  0  0
 27 32  1  0  0  0  0
 29 30  2  0  0  0  0
 29 31  1  0  0  0  0
 32 33  1  0  0  0  0
 32 34  1  0  0  0  0
M  END
$$$$

 OpenBabel10082008492D

 22 25  0  0  0  0  0  0  0  0999 V2000
    3.5289   -1.8653    0.0000 Cl  0  0  0  0  0  0  0  0  0  0  0  0
    2.6629   -1.3653    0.0000 C   0  0  0  0  0  0  0  0  0  0  0  0
    1.7969   -1.8653    0.0000 C   0  0  0  0  0  0  0  0  0  0  0  0
    0.9309   -1.3653    0.0000 C   0  0  0  0  0  0  0  0  0  0  0  0
    0.9309   -0.3653    0.0000 C   0  0  0  0  0  0  0  0  0  0  0  0
    1.7969    0.1347    0.0000 C   0  0  0  0  0  0  0  0  0  0  0  0
    2.6629   -0.3653    0.0000 C   0  0  0  0  0  0  0  0  0  0  0  0
    1.9459    1.1235    0.0000 C   0  0  0  0  0  0  0  0  0  0  0  0
    2.9015    1.4182    0.0000 N   0  0  0  0  0  0  0  0  0  0  0  0
    3.1240    2.3932    0.0000 C   0  0  0  0  0  0  0  0  0  0  0  0
    4.0796    2.6879    0.0000 C   0  0  0  0  0  0  0  0  0  0  0  0
    4.8127    2.0078    0.0000 N   0  0  0  0  0  0  0  0  0  0  0  0
    4.5901    1.0328    0.0000 C   0  0  0  0  0  0  0  0  0  0  0  0
    3.6346    0.7381    0.0000 C   0  0  0  0  0  0  0  0  0  0  0  0
    1.2658    1.8565    0.0000 N   0  0  0  0  0  0  0  0  0  0  0  0
    0.2686    1.7818    0.0000 C   0  0  0  0  0  0  0  0  0  0  0  0
   -0.1653    2.6828    0.0000 C   0  0  0  0  0  0  0  0  0  0  0  0
   -1.1625    2.7575    0.0000 C   0  0  0  0  0  0  0  0  0  0  0  0
   -1.7258    1.9313    0.0000 C   0  0  0  0  0  0  0  0  0  0  0  0
   -1.2920    1.0303    0.0000 C   0  0  0  0  0  0  0  0  0  0  0  0
   -0.2948    0.9556    0.0000 C   0  0  0  0  0  0  0  0  0  0  0  0
   -0.0000   -0.0000    0.0000 O   0  0  0  0  0  0  0  0  0  0  0  0
  1  2  1  0  0  0  0
  2  7  1  0  0  0  0
  2  3  2  0  0  0  0
  3  4  1  0  0  0  0
  4  5  2  0  0  0  0
  5 22  1  0  0  0  0
  5  6  1  0  0  0  0
  6  7  2  0  0  0  0
  6  8  1  0  0  0  0
  8  9  1  0  0  0  0
  8 15  2  0  0  0  0
  9 14  1  0  0  0  0
  9 10  1  0  0  0  0
 10 11  1  0  0  0  0
 11 12  1  0  0  0  0
 12 13  1  0  0  0  0
 13 14  1  0  0  0  0
 15 16  1  0  0  0  0
 16 21  1  0  0  0  0
 16 17  2  0  0  0  0
 17 18  1  0  0  0  0
 18 19  2  0  0  0  0
 19 20  1  0  0  0  0
 20 21  2  0  0  0  0
 21 22  1  0  0  0  0
M  END
$$$$

 OpenBabel10082008492D

 18 18  0  0  0  0  0  0  0  0999 V2000
   -0.8660   -1.5000    0.0000 C   0  0  0  0  0  0  0  0  0  0  0  0
   -0.8660   -0.5000    0.0000 C   0  0  0  0  0  0  0  0  0  0  0  0
   -1.7321   -0.0000    0.0000 C   0  0  0  0  0  0  0  0  0  0  0  0
   -1.7321    1.0000    0.0000 C   0  0  0  0  0  0  0  0  0  0  0  0
   -0.8660    1.5000    0.0000 C   0  0  0  0  0  0  0  0  0  0  0  0
   -0.8660    2.5000    0.0000 C   0  0  0  0  0  0  0  0  0  0  0  0
   -0.0000    1.0000    0.0000 C   0  0  0  0  0  0  0  0  0  0  0  0
    0.8660    1.5000    0.0000 O   0  0  0  0  0  0  0  0  0  0  0  0
    0.8660    2.5000    0.0000 C   0  0  0  0  0  0  0  0  0  0  0  0
   -0.0000    3.0000    0.0000 C   0  0  0  0  0  0  0  0  0  0  0  0
   -0.0000    4.0000    0.0000 C   0  0  0  0  0  0  0  0  0  0  0  0
    0.8660    4.5000    0.0000 C   0  0  0  0  0  0  0  0  0  0  0  0
    1.3660    5.3660    0.0000 C   0  0  0  0  0  0  0  0  0  0  0  0
    0.3660    5.3660    0.0000 C   0  0  0  0  0  0  0  0  0  0  0  0
    1.7321    4.0000    0.0000 C   0  0  0  0  0  0  0  0  0  0  0  0
    1.7321    3.0000    0.0000 O   0  0  0  0  0  0  0  0  0  0  0  0
    2.5981    4.5000    0.0000 O   0  0  0  0  0  0  0  0  0  0  0  0
    0.0000    0.0000    0.0000 C   0  0  0  0  0  0  0  0  0  0  0  0
  1  2  1  0  0  0  0
  2 18  1  0  0  0  0
  2  3  2  0  0  0  0
  3  4  1  0  0  0  0
  4  5  2  0  0  0  0
  5  6  1  0  0  0  0
  5  7  1  0  0  0  0
  7  8  1  0  0  0  0
  7 18  2  0  0  0  0
  8  9  1  0  0  0  0
  9 10  1  0  0  0  0
 10 11  1  0  0  0  0
 11 12  1  0  0  0  0
 12 13  1  0  0  0  0
 12 14  1  0  0  0  0
 12 15  1  0  0  0  0
 15 16  2  0  0  0  0
 15 17  1  0  0  0  0
M  END
$$$$

 OpenBabel10082008492D

 25 28  0  0  0  0  0  0  0  0999 V2000
    7.8756    0.0638    0.0000 C   0  0  0  0  0  0  0  0  0  0  0  0
    6.8810    0.1683    0.0000 N   0  0  0  0  0  0  0  0  0  0  0  0
    6.4743    1.0818    0.0000 C   0  0  0  0  0  0  0  0  0  0  0  0
    5.4798    1.1864    0.0000 C   0  0  0  0  0  0  0  0  0  0  0  0
    5.0731    2.0999    0.0000 C   0  0  0  0  0  0  0  0  0  0  0  0
    4.0785    2.2044    0.0000 C   0  0  0  0  0  0  0  0  0  0  0  0
    3.4907    1.3954    0.0000 C   0  0  0  0  0  0  0  0  0  0  0  0
    2.4962    1.5000    0.0000 C   0  0  0  0  0  0  0  0  0  0  0  0
    1.9962    2.3660    0.0000 N   0  0  0  0  0  0  0  0  0  0  0  0
    2.4030    3.2795    0.0000 H   0  0  0  0  0  0  0  0  0  0  0  0
    1.0181    2.1581    0.0000 C   0  0  0  0  0  0  0  0  0  0  0  0
    0.2091    2.7458    0.0000 C   0  0  0  0  0  0  0  0  0  0  0  0
   -0.7045    2.3391    0.0000 C   0  0  0  0  0  0  0  0  0  0  0  0
   -1.5135    2.9269    0.0000 F   0  0  0  0  0  0  0  0  0  0  0  0
   -0.8090    1.3446    0.0000 C   0  0  0  0  0  0  0  0  0  0  0  0
    0.0000    0.7568    0.0000 C   0  0  0  0  0  0  0  0  0  0  0  0
    0.9135    1.1635    0.0000 C   0  0  0  0  0  0  0  0  0  0  0  0
    1.8271    0.7568    0.0000 C   0  0  0  0  0  0  0  0  0  0  0  0
    1.8271    0.0000    0.0000 C   0  0  0  0  0  0  0  0  0  0  0  0
    1.2919   -0.5351    0.0000 C   0  0  0  0  0  0  0  0  0  0  0  0
    0.5351   -0.5351    0.0000 N   0  0  0  0  0  0  0  0  0  0  0  0
    0.0000   -0.0000    0.0000 C   0  0  0  0  0  0  0  0  0  0  0  0
   -0.9239   -0.3827    0.0000 O   0  0  0  0  0  0  0  0  0  0  0  0
    3.8975    0.4819    0.0000 C   0  0  0  0  0  0  0  0  0  0  0  0
    4.8920    0.3773    0.0000 C   0  0  0  0  0  0  0  0  0  0  0  0
  1  2  1  0  0  0  0
  2  3  1  0  0  0  0
  3  4  1  0  0  0  0
  4 25  1  0  0  0  0
  4  5  2  0  0  0  0
  5  6  1  0  0  0  0
  6  7  2  0  0  0  0
  7  8  1  0  0  0  0
  7 24  1  0  0  0  0
  8 18  2  0  0  0  0
  8  9  1  0  0  0  0
  9 10  1  0  0  0  0
  9 11  1  0  0  0  0
 11 17  1  0  0  0  0
 11 12  2  0  0  0  0
 12 13  1  0  0  0  0
 13 14  1  0  0  0  0
 13 15  2  0  0  0  0
 15 16  1  0  0  0  0
 16 22  1  0  0  0  0
 16 17  2  0  0  0  0
 17 18  1  0  0  0  0
 18 19  1  0  0  0  0
 19 20  1  0  0  0  0
 20 21  1  0  0  0  0
 21 22  1  0  0  0  0
 22 23  2  0  0  0  0
 24 25  2  0  0  0  0
M  END
$$$$

 OpenBabel10082008492D

 19 20  0  0  1  0  0  0  0  0999 V2000
    2.5981   -0.5000    0.0000 C   0  0  0  0  0  0  0  0  0  0  0  0
    1.7321   -0.0000    0.0000 O   0  0  0  0  0  0  0  0  0  0  0  0
    0.8660   -0.5000    0.0000 C   0  0  0  0  0  0  0  0  0  0  0  0
    0.8660   -1.5000    0.0000 C   0  0  0  0  0  0  0  0  0  0  0  0
    0.0000   -2.0000    0.0000 C   0  0  0  0  0  0  0  0  0  0  0  0
    0.0000   -3.0000    0.0000 N   0  0  0  0  0  0  0  0  0  0  0  0
   -0.8660   -3.5000    0.0000 C   0  0  3  0  0  0  0  0  0  0  0  0
   -1.7321   -3.0000    0.0000 C   0  0  0  0  0  0  0  0  0  0  0  0
   -0.8660   -4.5000    0.0000 C   0  0  0  0  0  0  0  0  0  0  0  0
   -1.7321   -5.0000    0.0000 C   0  0  0  0  0  0  0  0  0  0  0  0
   -1.7321   -6.0000    0.0000 C   0  0  0  0  0  0  0  0  0  0  0  0
   -2.5981   -6.5000    0.0000 N   0  0  0  0  0  0  0  0  0  0  0  0
   -0.8660   -1.5000    0.0000 C   0  0  0  0  0  0  0  0  0  0  0  0
   -1.7321   -2.0000    0.0000 N   0  0  0  0  0  0  0  0  0  0  0  0
   -2.5981   -1.5000    0.0000 C   0  0  0  0  0  0  0  0  0  0  0  0
   -2.5981   -0.5000    0.0000 C   0  0  0  0  0  0  0  0  0  0  0  0
   -1.7321   -0.0000    0.0000 C   0  0  0  0  0  0  0  0  0  0  0  0
   -0.8660   -0.5000    0.0000 C   0  0  0  0  0  0  0  0  0  0  0  0
   -0.0000   -0.0000    0.0000 C   0  0  0  0  0  0  0  0  0  0  0  0
  1  2  1  0  0  0  0
  2  3  1  0  0  0  0
  3 19  1  0  0  0  0
  3  4  2  0  0  0  0
  4  5  1  0  0  0  0
  5  6  1  0  0  0  0
  5 13  2  0  0  0  0
  6  7  1  0  0  0  0
  7  8  1  0  0  0  0
  7  9  1  0  0  0  0
  9 10  1  0  0  0  0
 10 11  1  0  0  0  0
 11 12  1  0  0  0  0
 13 18  1  0  0  0  0
 13 14  1  0  0  0  0
 14 15  2  0  0  0  0
 15 16  1  0  0  0  0
 16 17  2  0  0  0  0
 17 18  1  0  0  0  0
 18 19  2  0  0  0  0
M  END
$$$$

 OpenBabel10082008492D

 14 14  0  0  0  0  0  0  0  0999 V2000
   -0.4177   -2.1730    0.0000 C   0  0  0  0  0  0  0  0  0  0  0  0
   -0.1589   -1.2071    0.0000 C   0  0  0  0  0  0  0  0  0  0  0  0
   -0.8660   -0.5000    0.0000 C   0  0  0  0  0  0  0  0  0  0  0  0
   -1.7899   -0.8827    0.0000 C   0  0  0  0  0  0  0  0  0  0  0  0
   -1.9204   -1.8741    0.0000 C   0  0  0  0  0  0  0  0  0  0  0  0
   -1.7321   -0.0000    0.0000 C   0  0  0  0  0  0  0  0  0  0  0  0
   -2.5981   -0.5000    0.0000 O   0  0  0  0  0  0  0  0  0  0  0  0
   -1.7321    1.0000    0.0000 N   0  0  0  0  0  0  0  0  0  0  0  0
   -0.8660    1.5000    0.0000 C   0  0  0  0  0  0  0  0  0  0  0  0
   -0.8660    2.5000    0.0000 O   0  0  0  0  0  0  0  0  0  0  0  0
   -0.0000    1.0000    0.0000 N   0  0  0  0  0  0  0  0  0  0  0  0
    0.8660    1.5000    0.0000 C   0  0  0  0  0  0  0  0  0  0  0  0
    0.0000    0.0000    0.0000 C   0  0  0  0  0  0  0  0  0  0  0  0
    0.8660   -0.5000    0.0000 O   0  0  0  0  0  0  0  0  0  0  0  0
  1  2  1  0  0  0  0
  2  3  1  0  0  0  0
  3 13  1  0  0  0  0
  3  4  1  0  0  0  0
  3  6  1  0  0  0  0
  4  5  1  0  0  0  0
  6  7  2  0  0  0  0
  6  8  1  0  0  0  0
  8  9  1  0  0  0  0
  9 10  2  0  0  0  0
  9 11  1  0  0  0  0
 11 12  1  0  0  0  0
 11 13  1  0  0  0  0
 13 14  2  0  0  0  0
M  END
$$$$

 OpenBabel10082008492D

 21 23  0  0  0  0  0  0  0  0999 V2000
   -1.8781   -3.1622    0.0000 C   0  0  0  0  0  0  0  0  0  0  0  0
   -0.9000   -2.9543    0.0000 N   0  0  0  0  0  0  0  0  0  0  0  0
   -0.2308   -3.6974    0.0000 C   0  0  0  0  0  0  0  0  0  0  0  0
   -0.5909   -2.0032    0.0000 C   0  0  0  0  0  0  0  0  0  0  0  0
   -1.2601   -1.2601    0.0000 C   0  0  0  0  0  0  0  0  0  0  0  0
   -0.9511   -0.3090    0.0000 C   0  0  0  0  0  0  0  0  0  0  0  0
   -1.5388    0.5000    0.0000 C   0  0  0  0  0  0  0  0  0  0  0  0
   -0.9511    1.3090    0.0000 N   0  0  0  0  0  0  0  0  0  0  0  0
   -1.2601    2.2601    0.0000 H   0  0  0  0  0  0  0  0  0  0  0  0
   -0.0000    1.0000    0.0000 C   0  0  0  0  0  0  0  0  0  0  0  0
    0.8660    1.5000    0.0000 C   0  0  0  0  0  0  0  0  0  0  0  0
    1.7321    1.0000    0.0000 C   0  0  0  0  0  0  0  0  0  0  0  0
    1.7321    0.0000    0.0000 C   0  0  0  0  0  0  0  0  0  0  0  0
    2.5981   -0.5000    0.0000 C   0  0  0  0  0  0  0  0  0  0  0  0
    3.4641   -0.0000    0.0000 N   0  0  0  0  0  0  0  0  0  0  0  0
    3.5686    0.9945    0.0000 C   0  0  0  0  0  0  0  0  0  0  0  0
    4.5468    1.2024    0.0000 N   0  0  0  0  0  0  0  0  0  0  0  0
    5.0468    0.3364    0.0000 C   0  0  0  0  0  0  0  0  0  0  0  0
    4.3776   -0.4067    0.0000 N   0  0  0  0  0  0  0  0  0  0  0  0
    0.8660   -0.5000    0.0000 C   0  0  0  0  0  0  0  0  0  0  0  0
    0.0000    0.0000    0.0000 C   0  0  0  0  0  0  0  0  0  0  0  0
  1  2  1  0  0  0  0
  2  3  1  0  0  0  0
  2  4  1  0  0  0  0
  4  5  1  0  0  0  0
  5  6  1  0  0  0  0
  6 21  1  0  0  0  0
  6  7  2  0  0  0  0
  7  8  1  0  0  0  0
  8  9  1  0  0  0  0
  8 10  1  0  0  0  0
 10 21  1  0  0  0  0
 10 11  2  0  0  0  0
 11 12  1  0  0  0  0
 12 13  2  0  0  0  0
 13 14  1  0  0  0  0
 13 20  1  0  0  0  0
 14 15  1  0  0  0  0
 15 19  1  0  0  0  0
 15 16  1  0  0  0  0
 16 17  2  0  0  0  0
 17 18  1  0  0  0  0
 18 19  2  0  0  0  0
 20 21  2  0  0  0  0
M  END
$$$$

 OpenBabel10082008492D

 28 31  0  0  0  0  0  0  0  0999 V2000
    1.7321    2.0000    0.0000 C   0  0  0  0  0  0  0  0  0  0  0  0
    0.8660    1.5000    0.0000 O   0  0  0  0  0  0  0  0  0  0  0  0
    0.8660    0.5000    0.0000 C   0  0  0  0  0  0  0  0  0  0  0  0
    1.7321    0.0000    0.0000 C   0  0  0  0  0  0  0  0  0  0  0  0
    1.7321   -1.0000    0.0000 C   0  0  0  0  0  0  0  0  0  0  0  0
    2.5981   -1.5000    0.0000 N   0  0  0  0  0  0  0  0  0  0  0  0
    2.5981   -2.5000    0.0000 C   0  0  0  0  0  0  0  0  0  0  0  0
    3.4641   -3.0000    0.0000 N   0  0  0  0  0  0  0  0  0  0  0  0
    4.3301   -2.5000    0.0000 C   0  0  0  0  0  0  0  0  0  0  0  0
    5.1962   -3.0000    0.0000 C   0  0  0  0  0  0  0  0  0  0  0  0
    5.1962   -4.0000    0.0000 N   0  0  0  0  0  0  0  0  0  0  0  0
    6.0622   -4.5000    0.0000 C   0  0  0  0  0  0  0  0  0  0  0  0
    6.0622   -5.5000    0.0000 O   0  0  0  0  0  0  0  0  0  0  0  0
    6.9282   -4.0000    0.0000 C   0  0  0  0  0  0  0  0  0  0  0  0
    7.0327   -3.0055    0.0000 C   0  0  0  0  0  0  0  0  0  0  0  0
    8.0109   -2.7976    0.0000 C   0  0  0  0  0  0  0  0  0  0  0  0
    8.5109   -3.6636    0.0000 C   0  0  0  0  0  0  0  0  0  0  0  0
    7.8417   -4.4067    0.0000 O   0  0  0  0  0  0  0  0  0  0  0  0
    4.3301   -4.5000    0.0000 C   0  0  0  0  0  0  0  0  0  0  0  0
    3.4641   -4.0000    0.0000 C   0  0  0  0  0  0  0  0  0  0  0  0
    1.7321   -3.0000    0.0000 N   0  0  0  0  0  0  0  0  0  0  0  0
    0.8660   -2.5000    0.0000 C   0  0  0  0  0  0  0  0  0  0  0  0
    0.0000   -3.0000    0.0000 N   0  0  0  0  0  0  0  0  0  0  0  0
    0.8660   -1.5000    0.0000 C   0  0  0  0  0  0  0  0  0  0  0  0
    0.0000   -1.0000    0.0000 C   0  0  0  0  0  0  0  0  0  0  0  0
    0.0000   -0.0000    0.0000 C   0  0  0  0  0  0  0  0  0  0  0  0
   -0.8660    0.5000    0.0000 O   0  0  0  0  0  0  0  0  0  0  0  0
   -0.8660    1.5000    0.0000 C   0  0  0  0  0  0  0  0  0  0  0  0
  1  2  1  0  0  0  0
  2  3  1  0  0  0  0
  3 26  1  0  0  0  0
  3  4  2  0  0  0  0
  4  5  1  0  0  0  0
  5 24  1  0  0  0  0
  5  6  2  0  0  0  0
  6  7  1  0  0  0  0
  7  8  1  0  0  0  0
  7 21  2  0  0  0  0
  8 20  1  0  0  0  0
  8  9  1  0  0  0  0
  9 10  1  0  0  0  0
 10 11  1  0  0  0  0
 11 12  1  0  0  0  0
 11 19  1  0  0  0  0
 12 13  2  0  0  0  0
 12 14  1  0  0  0  0
 14 18  1  0  0  0  0
 14 15  2  0  0  0  0
 15 16  1  0  0  0  0
 16 17  2  0  0  0  0
 17 18  1  0  0  0  0
 19 20  1  0  0  0  0
 21 22  1  0  0  0  0
 22 23  1  0  0  0  0
 22 24  2  0  0  0  0
 24 25  1  0  0  0  0
 25 26  2  0  0  0  0
 26 27  1  0  0  0  0
 27 28  1  0  0  0  0
M  END
$$$$

 OpenBabel10082008492D

 35 37  0  0  1  0  0  0  0  0999 V2000
    1.7321   -3.0000    0.0000 C   0  0  0  0  0  0  0  0  0  0  0  0
    1.7321   -2.0000    0.0000 O   0  0  0  0  0  0  0  0  0  0  0  0
    0.8660   -1.5000    0.0000 C   0  0  0  0  0  0  0  0  0  0  0  0
    0.8660   -0.5000    0.0000 O   0  0  0  0  0  0  0  0  0  0  0  0
    0.0000   -2.0000    0.0000 C   0  0  0  0  0  0  0  0  0  0  0  0
    0.0000   -3.0000    0.0000 C   0  0  0  0  0  0  0  0  0  0  0  0
    0.8660   -3.5000    0.0000 C   0  0  0  0  0  0  0  0  0  0  0  0
   -0.8660   -3.5000    0.0000 N   0  0  0  0  0  0  0  0  0  0  0  0
   -1.7321   -3.0000    0.0000 C   0  0  0  0  0  0  0  0  0  0  0  0
   -2.5981   -3.5000    0.0000 C   0  0  0  0  0  0  0  0  0  0  0  0
   -1.7321   -2.0000    0.0000 C   0  0  0  0  0  0  0  0  0  0  0  0
   -2.5981   -1.5000    0.0000 C   0  0  0  0  0  0  0  0  0  0  0  0
   -2.5981   -0.5000    0.0000 O   0  0  0  0  0  0  0  0  0  0  0  0
   -3.4641   -2.0000    0.0000 O   0  0  0  0  0  0  0  0  0  0  0  0
   -4.3301   -1.5000    0.0000 C   0  0  0  0  0  0  0  0  0  0  0  0
   -5.1962   -2.0000    0.0000 C   0  0  0  0  0  0  0  0  0  0  0  0
   -6.0622   -1.5000    0.0000 N   0  0  0  0  0  0  0  0  0  0  0  0
   -6.0622   -0.5000    0.0000 C   0  0  0  0  0  0  0  0  0  0  0  0
   -6.9282   -2.0000    0.0000 C   0  0  0  0  0  0  0  0  0  0  0  0
   -7.7942   -1.5000    0.0000 C   0  0  0  0  0  0  0  0  0  0  0  0
   -8.6603   -2.0000    0.0000 C   0  0  0  0  0  0  0  0  0  0  0  0
   -9.5263   -1.5000    0.0000 C   0  0  0  0  0  0  0  0  0  0  0  0
   -9.5263   -0.5000    0.0000 C   0  0  0  0  0  0  0  0  0  0  0  0
   -8.6603    0.0000    0.0000 C   0  0  0  0  0  0  0  0  0  0  0  0
   -7.7942   -0.5000    0.0000 C   0  0  0  0  0  0  0  0  0  0  0  0
   -0.8660   -1.5000    0.0000 C   0  0  3  0  0  0  0  0  0  0  0  0
   -0.8660   -0.5000    0.0000 C   0  0  0  0  0  0  0  0  0  0  0  0
   -1.7321   -0.0000    0.0000 C   0  0  0  0  0  0  0  0  0  0  0  0
   -1.7321    1.0000    0.0000 C   0  0  0  0  0  0  0  0  0  0  0  0
   -0.8660    1.5000    0.0000 C   0  0  0  0  0  0  0  0  0  0  0  0
   -0.0000    1.0000    0.0000 C   0  0  0  0  0  0  0  0  0  0  0  0
    0.8660    1.5000    0.0000 N   0  3  0  0  0  0  0  0  0  0  0  0
    1.7321    1.0000    0.0000 O   0  0  0  0  0  0  0  0  0  0  0  0
    0.8660    2.5000    0.0000 O   0  5  0  0  0  0  0  0  0  0  0  0
    0.0000    0.0000    0.0000 C   0  0  0  0  0  0  0  0  0  0  0  0
  1  2  1  0  0  0  0
  2  3  1  0  0  0  0
  3  4  2  0  0  0  0
  3  5  1  0  0  0  0
  5 26  1  0  0  0  0
  5  6  2  0  0  0  0
  6  7  1  0  0  0  0
  6  8  1  0  0  0  0
  8  9  1  0  0  0  0
  9 10  1  0  0  0  0
  9 11  2  0  0  0  0
 11 12  1  0  0  0  0
 11 26  1  0  0  0  0
 12 13  2  0  0  0  0
 12 14  1  0  0  0  0
 14 15  1  0  0  0  0
 15 16  1  0  0  0  0
 16 17  1  0  0  0  0
 17 18  1  0  0  0  0
 17 19  1  0  0  0  0
 19 20  1  0  0  0  0
 20 25  1  0  0  0  0
 20 21  2  0  0  0  0
 21 22  1  0  0  0  0
 22 23  2  0  0  0  0
 23 24  1  0  0  0  0
 24 25  2  0  0  0  0
 26 27  1  0  0  0  0
 27 35  1  0  0  0  0
 27 28  2  0  0  0  0
 28 29  1  0  0  0  0
 29 30  2  0  0  0  0
 30 31  1  0  0  0  0
 31 32  1  0  0  0  0
 31 35  2  0  0  0  0
 32 33  2  0  0  0  0
 32 34  1  0  0  0  0
M  CHG  2  32   1  34  -1
M  END
$$$$

 OpenBabel10082008492D

 73 82  0  0  1  0  0  0  0  0999 V2000
  -10.6092    1.3862    0.0000 C   0  0  0  0  0  0  0  0  0  0  0  0
   -9.6146    1.4908    0.0000 O   0  0  0  0  0  0  0  0  0  0  0  0
   -9.2079    2.4043    0.0000 C   0  0  0  0  0  0  0  0  0  0  0  0
   -9.7957    3.2133    0.0000 O   0  0  0  0  0  0  0  0  0  0  0  0
   -8.2134    2.5088    0.0000 N   0  0  0  0  0  0  0  0  0  0  0  0
   -7.8066    3.4224    0.0000 C   0  0  2  0  0  0  0  0  0  0  0  0
   -8.7202    3.8291    0.0000 H   0  0  0  0  0  0  0  0  0  0  0  0
   -6.8931    3.0156    0.0000 C   0  0  0  0  0  0  0  0  0  0  0  0
   -6.0841    3.6034    0.0000 O   0  0  0  0  0  0  0  0  0  0  0  0
   -6.7886    2.0211    0.0000 N   0  0  0  0  0  0  0  0  0  0  0  0
   -7.5317    1.3520    0.0000 C   0  0  0  0  0  0  0  0  0  0  0  0
   -7.1250    0.4385    0.0000 C   0  0  0  0  0  0  0  0  0  0  0  0
   -7.9910   -0.0615    0.0000 C   0  0  0  0  0  0  0  0  0  0  0  0
   -7.1250   -0.5615    0.0000 C   0  0  0  0  0  0  0  0  0  0  0  0
   -6.1305    0.5430    0.0000 C   0  0  0  0  0  0  0  0  0  0  0  0
   -5.9225    1.5211    0.0000 C   0  0  1  0  0  0  0  0  0  0  0  0
   -5.3348    2.3301    0.0000 H   0  0  0  0  0  0  0  0  0  0  0  0
   -4.9280    1.4166    0.0000 C   0  0  0  0  0  0  0  0  0  0  0  0
   -4.4280    0.5506    0.0000 N   0  0  0  0  0  0  0  0  0  0  0  0
   -3.4499    0.7585    0.0000 C   0  0  0  0  0  0  0  0  0  0  0  0
   -2.7067    0.0894    0.0000 C   0  0  0  0  0  0  0  0  0  0  0  0
   -2.9146   -0.8888    0.0000 C   0  0  0  0  0  0  0  0  0  0  0  0
   -2.1715   -1.5579    0.0000 C   0  0  0  0  0  0  0  0  0  0  0  0
   -1.2204   -1.2489    0.0000 C   0  0  0  0  0  0  0  0  0  0  0  0
   -1.0125   -0.2708    0.0000 C   0  0  0  0  0  0  0  0  0  0  0  0
   -1.7557    0.3984    0.0000 C   0  0  0  0  0  0  0  0  0  0  0  0
   -0.0180   -0.1662    0.0000 C   0  0  0  0  0  0  0  0  0  0  0  0
   -0.0180    0.8338    0.0000 F   0  0  0  0  0  0  0  0  0  0  0  0
    0.8480    0.3338    0.0000 F   0  0  0  0  0  0  0  0  0  0  0  0
    0.3887   -1.0798    0.0000 C   0  0  0  0  0  0  0  0  0  0  0  0
    1.3398   -1.3888    0.0000 C   0  0  0  0  0  0  0  0  0  0  0  0
    1.5477   -2.3669    0.0000 C   0  0  0  0  0  0  0  0  0  0  0  0
    2.4988   -2.6760    0.0000 C   0  0  0  0  0  0  0  0  0  0  0  0
    2.7067   -3.6541    0.0000 C   0  0  0  0  0  0  0  0  0  0  0  0
    3.6577   -3.9631    0.0000 C   0  0  0  0  0  0  0  0  0  0  0  0
    4.4009   -3.2940    0.0000 C   0  0  0  0  0  0  0  0  0  0  0  0
    5.3954   -3.3985    0.0000 N   0  0  0  0  0  0  0  0  0  0  0  0
    5.8954   -4.2645    0.0000 H   0  0  0  0  0  0  0  0  0  0  0  0
    5.8021   -2.4850    0.0000 C   0  0  0  0  0  0  0  0  0  0  0  0
    6.7803   -2.2771    0.0000 C   0  0  2  0  0  0  0  0  0  0  0  0
    7.1786   -3.1943    0.0000 H   0  0  0  0  0  0  0  0  0  0  0  0
    7.7789   -2.2247    0.0000 C   0  0  1  0  0  0  0  0  0  0  0  0
    8.6074   -2.7847    0.0000 H   0  0  0  0  0  0  0  0  0  0  0  0
    6.9798   -2.0982    0.0000 C   0  0  0  0  0  0  0  0  0  0  0  0
    6.6899   -1.3429    0.0000 C   0  0  0  0  0  0  0  0  0  0  0  0
    7.1991   -0.7142    0.0000 C   0  0  2  0  0  0  0  0  0  0  0  0
    7.4400    0.2564    0.0000 H   0  0  0  0  0  0  0  0  0  0  0  0
    8.0377   -1.2588    0.0000 C   0  0  0  0  0  0  0  0  0  0  0  0
    6.4219   -1.3435    0.0000 N   0  0  0  0  0  0  0  0  0  0  0  0
   -0.8600    1.4895    0.0000 C   0  0  0  0  0  0  0  0  0  0  0  0
   -0.0000    1.9860    0.0000 O   0  0  0  0  0  0  0  0  0  0  0  0
   -0.8600    0.4965    0.0000 C   0  0  1  0  0  0  0  0  0  0  0  0
   -0.3635   -0.3635    0.0000 H   0  0  0  0  0  0  0  0  0  0  0  0
   -1.7199   -0.0000    0.0000 N   0  0  0  0  0  0  0  0  0  0  0  0
   -2.5799    0.4965    0.0000 C   0  0  0  0  0  0  0  0  0  0  0  0
   -3.4399   -0.0000    0.0000 O   0  0  0  0  0  0  0  0  0  0  0  0
   -2.5799    1.4895    0.0000 O   0  0  0  0  0  0  0  0  0  0  0  0
   -1.7199    1.9860    0.0000 C   0  0  0  0  0  0  0  0  0  0  0  0
    0.0000   -0.0000    0.0000 C   0  0  0  0  0  0  0  0  0  0  0  0
   -0.0790   -0.9899    0.0000 C   0  0  0  0  0  0  0  0  0  0  0  0
    0.8967    0.4265    0.0000 C   0  0  0  0  0  0  0  0  0  0  0  0
    5.0590   -1.8158    0.0000 N   0  0  0  0  0  0  0  0  0  0  0  0
    4.1930   -2.3158    0.0000 C   0  0  0  0  0  0  0  0  0  0  0  0
    3.2419   -2.0068    0.0000 C   0  0  0  0  0  0  0  0  0  0  0  0
    0.8046   -3.0361    0.0000 C   0  0  0  0  0  0  0  0  0  0  0  0
   -0.1465   -2.7271    0.0000 C   0  0  0  0  0  0  0  0  0  0  0  0
   -0.3544   -1.7489    0.0000 C   0  0  0  0  0  0  0  0  0  0  0  0
   -3.3453    1.7530    0.0000 C   0  0  0  0  0  0  0  0  0  0  0  0
   -4.2589    2.1597    0.0000 N   0  0  0  0  0  0  0  0  0  0  0  0
   -4.4668    3.1379    0.0000 H   0  0  0  0  0  0  0  0  0  0  0  0
   -7.3999    4.3359    0.0000 C   0  0  0  0  0  0  0  0  0  0  0  0
   -7.9877    5.1449    0.0000 C   0  0  0  0  0  0  0  0  0  0  0  0
   -6.4054    4.4405    0.0000 C   0  0  0  0  0  0  0  0  0  0  0  0
  1  2  1  0  0  0  0
  2  3  1  0  0  0  0
  3  4  2  0  0  0  0
  3  5  1  0  0  0  0
  5  6  1  0  0  0  0
  6  7  1  6  0  0  0
  6  8  1  0  0  0  0
  6 71  1  0  0  0  0
  8  9  2  0  0  0  0
  8 10  1  0  0  0  0
 10 16  1  0  0  0  0
 10 11  1  0  0  0  0
 11 12  1  0  0  0  0
 12 14  1  0  0  0  0
 12 13  1  0  0  0  0
 12 15  1  0  0  0  0
 13 14  1  0  0  0  0
 15 16  1  0  0  0  0
 16 17  1  1  0  0  0
 16 18  1  0  0  0  0
 18 69  1  0  0  0  0
 18 19  2  0  0  0  0
 19 20  1  0  0  0  0
 20 21  1  0  0  0  0
 20 68  2  0  0  0  0
 21 26  1  0  0  0  0
 21 22  2  0  0  0  0
 22 23  1  0  0  0  0
 23 24  2  0  0  0  0
 24 67  1  0  0  0  0
 24 25  1  0  0  0  0
 25 26  2  0  0  0  0
 25 27  1  0  0  0  0
 27 28  1  0  0  0  0
 27 29  1  0  0  0  0
 27 30  1  0  0  0  0
 30 67  1  0  0  0  0
 30 31  2  0  0  0  0
 31 32  1  0  0  0  0
 32 33  1  0  0  0  0
 32 65  2  0  0  0  0
 33 64  1  0  0  0  0
 33 34  2  0  0  0  0
 34 35  1  0  0  0  0
 35 36  2  0  0  0  0
 36 63  1  0  0  0  0
 36 37  1  0  0  0  0
 37 38  1  0  0  0  0
 37 39  1  0  0  0  0
 39 40  1  0  0  0  0
 39 62  2  0  0  0  0
 40 41  1  6  0  0  0
 40 49  1  0  0  0  0
 40 42  1  0  0  0  0
 42 43  1  6  0  0  0
 42 48  1  0  0  0  0
 42 44  1  0  0  0  0
 44 45  1  0  0  0  0
 45 46  1  0  0  0  0
 46 47  1  6  0  0  0
 46 48  1  0  0  0  0
 46 49  1  0  0  0  0
 49 50  1  0  0  0  0
 50 51  2  0  0  0  0
 50 52  1  0  0  0  0
 52 53  1  1  0  0  0
 52 54  1  0  0  0  0
 52 59  1  0  0  0  0
 54 55  1  0  0  0  0
 55 56  2  0  0  0  0
 55 57  1  0  0  0  0
 57 58  1  0  0  0  0
 59 60  1  0  0  0  0
 59 61  1  0  0  0  0
 62 63  1  0  0  0  0
 63 64  2  0  0  0  0
 65 66  1  0  0  0  0
 66 67  2  0  0  0  0
 68 69  1  0  0  0  0
 69 70  1  0  0  0  0
 71 72  1  0  0  0  0
 71 73  1  0  0  0  0
M  END
$$$$

 OpenBabel10082008492D

 22 23  0  0  1  0  0  0  0  0999 V2000
   -0.8660    4.5000    0.0000 C   0  0  0  0  0  0  0  0  0  0  0  0
   -1.7321    4.0000    0.0000 N   0  0  0  0  0  0  0  0  0  0  0  0
   -1.7321    3.0000    0.0000 C   0  0  0  0  0  0  0  0  0  0  0  0
   -0.8660    2.5000    0.0000 C   0  0  0  0  0  0  0  0  0  0  0  0
   -0.8660    1.5000    0.0000 C   0  0  3  0  0  0  0  0  0  0  0  0
   -1.7321    1.0000    0.0000 O   0  0  0  0  0  0  0  0  0  0  0  0
   -1.7321    0.0000    0.0000 C   0  0  0  0  0  0  0  0  0  0  0  0
   -0.8660   -0.5000    0.0000 C   0  0  0  0  0  0  0  0  0  0  0  0
   -0.8660   -1.5000    0.0000 C   0  0  0  0  0  0  0  0  0  0  0  0
   -1.7321   -2.0000    0.0000 C   0  0  0  0  0  0  0  0  0  0  0  0
   -1.7321   -3.0000    0.0000 C   0  0  0  0  0  0  0  0  0  0  0  0
   -1.2321   -3.8660    0.0000 F   0  0  0  0  0  0  0  0  0  0  0  0
   -0.7321   -3.0000    0.0000 F   0  0  0  0  0  0  0  0  0  0  0  0
   -2.5981   -3.5000    0.0000 F   0  0  0  0  0  0  0  0  0  0  0  0
   -2.5981   -1.5000    0.0000 C   0  0  0  0  0  0  0  0  0  0  0  0
   -2.5981   -0.5000    0.0000 C   0  0  0  0  0  0  0  0  0  0  0  0
    0.0000    1.0000    0.0000 C   0  0  0  0  0  0  0  0  0  0  0  0
    0.8660    1.5000    0.0000 C   0  0  0  0  0  0  0  0  0  0  0  0
    1.7321    1.0000    0.0000 C   0  0  0  0  0  0  0  0  0  0  0  0
    1.7321   -0.0000    0.0000 C   0  0  0  0  0  0  0  0  0  0  0  0
    0.8660   -0.5000    0.0000 C   0  0  0  0  0  0  0  0  0  0  0  0
    0.0000   -0.0000    0.0000 C   0  0  0  0  0  0  0  0  0  0  0  0
  1  2  1  0  0  0  0
  2  3  1  0  0  0  0
  3  4  1  0  0  0  0
  4  5  1  0  0  0  0
  5  6  1  0  0  0  0
  5 17  1  0  0  0  0
  6  7  1  0  0  0  0
  7 16  1  0  0  0  0
  7  8  2  0  0  0  0
  8  9  1  0  0  0  0
  9 10  2  0  0  0  0
 10 11  1  0  0  0  0
 10 15  1  0  0  0  0
 11 12  1  0  0  0  0
 11 13  1  0  0  0  0
 11 14  1  0  0  0  0
 15 16  2  0  0  0  0
 17 22  1  0  0  0  0
 17 18  2  0  0  0  0
 18 19  1  0  0  0  0
 19 20  2  0  0  0  0
 20 21  1  0  0  0  0
 21 22  2  0  0  0  0
M  END
$$$$

 OpenBabel10082008492D

 23 24  0  0  0  0  0  0  0  0999 V2000
    2.9074    0.7248    0.0000 C   0  0  0  0  0  0  0  0  0  0  0  0
    3.8855    0.9328    0.0000 C   0  0  0  0  0  0  0  0  0  0  0  0
    4.5546    0.1896    0.0000 O   0  0  0  0  0  0  0  0  0  0  0  0
    4.1945    1.8838    0.0000 O   0  0  0  0  0  0  0  0  0  0  0  0
    3.5254    2.6270    0.0000 C   0  0  0  0  0  0  0  0  0  0  0  0
    2.5472    2.4190    0.0000 C   0  0  0  0  0  0  0  0  0  0  0  0
    2.2382    1.4680    0.0000 C   0  0  0  0  0  0  0  0  0  0  0  0
    1.2601    1.2601    0.0000 C   0  0  0  0  0  0  0  0  0  0  0  0
    0.9511    0.3090    0.0000 N   0  0  0  0  0  0  0  0  0  0  0  0
    1.5388   -0.5000    0.0000 C   0  0  0  0  0  0  0  0  0  0  0  0
    0.9511   -1.3090    0.0000 N   0  0  0  0  0  0  0  0  0  0  0  0
   -0.0000   -1.0000    0.0000 C   0  0  0  0  0  0  0  0  0  0  0  0
   -0.8660   -1.5000    0.0000 C   0  0  0  0  0  0  0  0  0  0  0  0
   -1.7321   -1.0000    0.0000 N   0  0  0  0  0  0  0  0  0  0  0  0
   -1.7321    0.0000    0.0000 C   0  0  0  0  0  0  0  0  0  0  0  0
   -2.5981    0.5000    0.0000 N   0  0  0  0  0  0  0  0  0  0  0  0
   -0.8660    0.5000    0.0000 N   0  0  0  0  0  0  0  0  0  0  0  0
    0.0000    0.0000    0.0000 C   0  0  0  0  0  0  0  0  0  0  0  0
    1.8781    3.1622    0.0000 C   0  0  0  0  0  0  0  0  0  0  0  0
    0.9000    2.9543    0.0000 O   0  0  0  0  0  0  0  0  0  0  0  0
    0.2308    3.6974    0.0000 C   0  0  0  0  0  0  0  0  0  0  0  0
   -0.7473    3.4895    0.0000 C   0  0  0  0  0  0  0  0  0  0  0  0
    0.5398    4.6485    0.0000 O   0  0  0  0  0  0  0  0  0  0  0  0
  1  2  1  0  0  0  0
  2  3  2  0  0  0  0
  2  4  1  0  0  0  0
  4  5  1  0  0  0  0
  5  6  1  0  0  0  0
  6  7  1  0  0  0  0
  6 19  1  0  0  0  0
  7  8  1  0  0  0  0
  8  9  1  0  0  0  0
  9 18  1  0  0  0  0
  9 10  1  0  0  0  0
 10 11  2  0  0  0  0
 11 12  1  0  0  0  0
 12 18  1  0  0  0  0
 12 13  2  0  0  0  0
 13 14  1  0  0  0  0
 14 15  2  0  0  0  0
 15 16  1  0  0  0  0
 15 17  1  0  0  0  0
 17 18  2  0  0  0  0
 19 20  1  0  0  0  0
 20 21  1  0  0  0  0
 21 22  1  0  0  0  0
 21 23  2  0  0  0  0
M  END
$$$$

 OpenBabel10082008492D

 14 13  0  0  0  0  0  0  0  0999 V2000
   -4.6429   -0.9286    0.0000 N   0  0  0  0  0  0  0  0  0  0  0  0
   -4.1786   -1.7327    0.0000 C   0  0  0  0  0  0  0  0  0  0  0  0
   -3.2500   -1.7327    0.0000 C   0  0  0  0  0  0  0  0  0  0  0  0
   -2.7857   -0.9286    0.0000 C   0  0  0  0  0  0  0  0  0  0  0  0
   -1.8571   -0.9286    0.0000 C   0  0  0  0  0  0  0  0  0  0  0  0
   -1.8571   -1.8571    0.0000 O   0  0  0  0  0  0  0  0  0  0  0  0
    0.0000   -0.9286    0.0000 P   0  0  0  0  0  0  0  0  0  0  0  0
    0.0000   -1.8571    0.0000 O   0  0  0  0  0  0  0  0  0  0  0  0
    0.9286   -0.9286    0.0000 O   0  0  0  0  0  0  0  0  0  0  0  0
    0.0000   -0.0000    0.0000 O   0  0  0  0  0  0  0  0  0  0  0  0
   -1.8571    0.0000    0.0000 P   0  0  0  0  0  0  0  0  0  0  0  0
   -0.9286   -0.0000    0.0000 O   0  0  0  0  0  0  0  0  0  0  0  0
   -1.8571    0.9286    0.0000 O   0  0  0  0  0  0  0  0  0  0  0  0
   -2.7857    0.0000    0.0000 O   0  0  0  0  0  0  0  0  0  0  0  0
  1  2  1  0  0  0  0
  2  3  1  0  0  0  0
  3  4  1  0  0  0  0
  4  5  1  0  0  0  0
  5  6  1  0  0  0  0
  5  7  1  0  0  0  0
  5 11  1  0  0  0  0
  7  8  2  0  0  0  0
  7  9  1  0  0  0  0
  7 10  1  0  0  0  0
 11 12  2  0  0  0  0
 11 13  1  0  0  0  0
 11 14  1  0  0  0  0
M  END
$$$$

 OpenBabel10082008492D

 22 24  0  0  1  0  0  0  0  0999 V2000
    1.1340    3.2321    0.0000 C   0  0  0  0  0  0  0  0  0  0  0  0
    0.6340    2.3660    0.0000 O   0  0  0  0  0  0  0  0  0  0  0  0
   -0.3660    2.3660    0.0000 C   0  0  0  0  0  0  0  0  0  0  0  0
   -0.8660    3.2321    0.0000 O   0  0  0  0  0  0  0  0  0  0  0  0
   -0.8660    1.5000    0.0000 C   0  0  2  0  0  0  0  0  0  0  0  0
   -1.7321    2.0000    0.0000 H   0  0  0  0  0  0  0  0  0  0  0  0
   -1.3660    0.6340    0.0000 C   0  0  0  0  0  0  0  0  0  0  0  0
   -0.8660   -0.2321    0.0000 C   0  0  0  0  0  0  0  0  0  0  0  0
   -1.3660   -1.0981    0.0000 C   0  0  0  0  0  0  0  0  0  0  0  0
   -2.3660   -1.0981    0.0000 C   0  0  0  0  0  0  0  0  0  0  0  0
   -2.8660   -0.2321    0.0000 C   0  0  0  0  0  0  0  0  0  0  0  0
   -2.3660    0.6340    0.0000 C   0  0  0  0  0  0  0  0  0  0  0  0
   -2.8660    1.5000    0.0000 Cl  0  0  0  0  0  0  0  0  0  0  0  0
    0.0000    1.0000    0.0000 N   0  0  0  0  0  0  0  0  0  0  0  0
    0.8660    1.5000    0.0000 C   0  0  0  0  0  0  0  0  0  0  0  0
    1.7321    1.0000    0.0000 C   0  0  0  0  0  0  0  0  0  0  0  0
    1.7321   -0.0000    0.0000 C   0  0  0  0  0  0  0  0  0  0  0  0
    2.4752   -0.6691    0.0000 S   0  0  0  0  0  0  0  0  0  0  0  0
    2.0685   -1.5827    0.0000 C   0  0  0  0  0  0  0  0  0  0  0  0
    1.0739   -1.4781    0.0000 C   0  0  0  0  0  0  0  0  0  0  0  0
    0.8660   -0.5000    0.0000 C   0  0  0  0  0  0  0  0  0  0  0  0
    0.0000   -0.0000    0.0000 C   0  0  0  0  0  0  0  0  0  0  0  0
  1  2  1  0  0  0  0
  2  3  1  0  0  0  0
  3  4  2  0  0  0  0
  3  5  1  0  0  0  0
  5  6  1  6  0  0  0
  5  7  1  0  0  0  0
  5 14  1  0  0  0  0
  7 12  1  0  0  0  0
  7  8  2  0  0  0  0
  8  9  1  0  0  0  0
  9 10  2  0  0  0  0
 10 11  1  0  0  0  0
 11 12  2  0  0  0  0
 12 13  1  0  0  0  0
 14 22  1  0  0  0  0
 14 15  1  0  0  0  0
 15 16  1  0  0  0  0
 16 17  1  0  0  0  0
 17 21  2  0  0  0  0
 17 18  1  0  0  0  0
 18 19  1  0  0  0  0
 19 20  2  0  0  0  0
 20 21  1  0  0  0  0
 21 22  1  0  0  0  0
M  END
$$$$

 OpenBabel10082008492D

 17 17  0  0  0  0  0  0  0  0999 V2000
    4.3301   -1.5000    0.0000 N   0  0  0  0  0  0  0  0  0  0  0  0
    4.3301   -0.5000    0.0000 C   0  0  0  0  0  0  0  0  0  0  0  0
    5.1962   -0.0000    0.0000 O   0  0  0  0  0  0  0  0  0  0  0  0
    3.4641   -0.0000    0.0000 O   0  0  0  0  0  0  0  0  0  0  0  0
    2.5981   -0.5000    0.0000 C   0  0  0  0  0  0  0  0  0  0  0  0
    1.7321   -0.0000    0.0000 C   0  0  0  0  0  0  0  0  0  0  0  0
    1.7321    1.0000    0.0000 C   0  0  0  0  0  0  0  0  0  0  0  0
    0.8660    1.5000    0.0000 O   0  0  0  0  0  0  0  0  0  0  0  0
    0.8660    2.5000    0.0000 C   0  0  0  0  0  0  0  0  0  0  0  0
    0.0000    3.0000    0.0000 N   0  0  0  0  0  0  0  0  0  0  0  0
    1.7321    3.0000    0.0000 O   0  0  0  0  0  0  0  0  0  0  0  0
    0.8660   -0.5000    0.0000 C   0  0  0  0  0  0  0  0  0  0  0  0
    0.8660   -1.5000    0.0000 C   0  0  0  0  0  0  0  0  0  0  0  0
    0.0000   -2.0000    0.0000 C   0  0  0  0  0  0  0  0  0  0  0  0
   -0.8660   -1.5000    0.0000 C   0  0  0  0  0  0  0  0  0  0  0  0
   -0.8660   -0.5000    0.0000 C   0  0  0  0  0  0  0  0  0  0  0  0
    0.0000    0.0000    0.0000 C   0  0  0  0  0  0  0  0  0  0  0  0
  1  2  1  0  0  0  0
  2  3  2  0  0  0  0
  2  4  1  0  0  0  0
  4  5  1  0  0  0  0
  5  6  1  0  0  0  0
  6  7  1  0  0  0  0
  6 12  1  0  0  0  0
  7  8  1  0  0  0  0
  8  9  1  0  0  0  0
  9 10  1  0  0  0  0
  9 11  2  0  0  0  0
 12 17  1  0  0  0  0
 12 13  2  0  0  0  0
 13 14  1  0  0  0  0
 14 15  2  0  0  0  0
 15 16  1  0  0  0  0
 16 17  2  0  0  0  0
M  END
$$$$

 OpenBabel10082008492D

 27 29  0  0  0  0  0  0  0  0999 V2000
    1.8660    1.5000    0.0000 C   0  0  0  0  0  0  0  0  0  0  0  0
    1.0000    1.0000    0.0000 C   0  0  0  0  0  0  0  0  0  0  0  0
    0.1340    1.5000    0.0000 C   0  0  0  0  0  0  0  0  0  0  0  0
    1.0000   -0.0000    0.0000 N   0  3  0  0  0  0  0  0  0  0  0  0
    2.0000   -0.0000    0.0000 C   0  0  0  0  0  0  0  0  0  0  0  0
    1.0000   -1.0000    0.0000 C   0  0  0  0  0  0  0  0  0  0  0  0
    1.8660   -1.5000    0.0000 C   0  0  0  0  0  0  0  0  0  0  0  0
    1.8660   -2.5000    0.0000 O   0  0  0  0  0  0  0  0  0  0  0  0
    2.7321   -3.0000    0.0000 C   0  0  0  0  0  0  0  0  0  0  0  0
    2.7321   -4.0000    0.0000 O   0  0  0  0  0  0  0  0  0  0  0  0
    3.5981   -2.5000    0.0000 C   0  0  0  0  0  0  0  0  0  0  0  0
    3.5981   -1.5000    0.0000 C   0  0  0  0  0  0  0  0  0  0  0  0
    2.7321   -1.0000    0.0000 C   0  0  0  0  0  0  0  0  0  0  0  0
    2.7321    0.0000    0.0000 C   0  0  0  0  0  0  0  0  0  0  0  0
    3.5981    0.5000    0.0000 C   0  0  0  0  0  0  0  0  0  0  0  0
    4.4641   -0.0000    0.0000 C   0  0  0  0  0  0  0  0  0  0  0  0
    4.4641   -1.0000    0.0000 C   0  0  0  0  0  0  0  0  0  0  0  0
    5.3301   -1.5000    0.0000 O   0  0  0  0  0  0  0  0  0  0  0  0
    5.3301   -2.5000    0.0000 C   0  0  0  0  0  0  0  0  0  0  0  0
    6.1962   -3.0000    0.0000 C   0  0  0  0  0  0  0  0  0  0  0  0
    6.1962   -4.0000    0.0000 C   0  0  0  0  0  0  0  0  0  0  0  0
    5.3301   -4.5000    0.0000 C   0  0  0  0  0  0  0  0  0  0  0  0
    4.4641   -4.0000    0.0000 C   0  0  0  0  0  0  0  0  0  0  0  0
    4.4641   -3.0000    0.0000 C   0  0  0  0  0  0  0  0  0  0  0  0
    0.0000   -0.0000    0.0000 C   0  0  0  0  0  0  0  0  0  0  0  0
   -0.5000   -0.8660    0.0000 C   0  0  0  0  0  0  0  0  0  0  0  0
   -0.5000    0.8660    0.0000 C   0  0  0  0  0  0  0  0  0  0  0  0
  1  2  1  0  0  0  0
  2  3  1  0  0  0  0
  2  4  1  0  0  0  0
  4  5  1  0  0  0  0
  4  6  1  0  0  0  0
  4 25  1  0  0  0  0
  6  7  1  0  0  0  0
  7  8  1  0  0  0  0
  8  9  1  0  0  0  0
  9 10  2  0  0  0  0
  9 11  1  0  0  0  0
 11 24  1  0  0  0  0
 11 12  1  0  0  0  0
 12 17  1  0  0  0  0
 12 13  2  0  0  0  0
 13 14  1  0  0  0  0
 14 15  2  0  0  0  0
 15 16  1  0  0  0  0
 16 17  2  0  0  0  0
 17 18  1  0  0  0  0
 18 19  1  0  0  0  0
 19 24  1  0  0  0  0
 19 20  2  0  0  0  0
 20 21  1  0  0  0  0
 21 22  2  0  0  0  0
 22 23  1  0  0  0  0
 23 24  2  0  0  0  0
 25 26  1  0  0  0  0
 25 27  1  0  0  0  0
M  CHG  1   4   1
M  END
$$$$

 OpenBabel10082008492D

 25 26  0  0  1  0  0  0  0  0999 V2000
    4.0208    0.4643    0.0000 C   0  0  0  0  0  0  0  0  0  0  0  0
    3.2167    0.9286    0.0000 O   0  0  0  0  0  0  0  0  0  0  0  0
    2.4125    0.4643    0.0000 C   0  0  0  0  0  0  0  0  0  0  0  0
    1.6083    0.9286    0.0000 O   0  0  0  0  0  0  0  0  0  0  0  0
    2.4125   -1.3929    0.0000 C   0  0  0  0  0  0  0  0  0  0  0  0
    3.2167   -1.8571    0.0000 C   0  0  0  0  0  0  0  0  0  0  0  0
    4.0208   -1.3929    0.0000 C   0  0  0  0  0  0  0  0  0  0  0  0
    3.2167   -2.7857    0.0000 N   0  0  0  0  0  0  0  0  0  0  0  0
    2.4125   -3.2500    0.0000 C   0  0  0  0  0  0  0  0  0  0  0  0
    2.4125   -4.1786    0.0000 C   0  0  0  0  0  0  0  0  0  0  0  0
    1.6083   -2.7857    0.0000 C   0  0  0  0  0  0  0  0  0  0  0  0
    0.8042   -3.2500    0.0000 C   0  0  0  0  0  0  0  0  0  0  0  0
    0.0000   -2.7857    0.0000 O   0  0  0  0  0  0  0  0  0  0  0  0
    0.8042   -4.1786    0.0000 O   0  0  0  0  0  0  0  0  0  0  0  0
    0.0000   -4.6429    0.0000 C   0  0  0  0  0  0  0  0  0  0  0  0
    1.6083   -1.8571    0.0000 C   0  0  3  0  0  0  0  0  0  0  0  0
    0.0000   -0.9286    0.0000 C   0  0  0  0  0  0  0  0  0  0  0  0
   -0.8042   -1.3929    0.0000 C   0  0  0  0  0  0  0  0  0  0  0  0
   -1.6083   -0.9286    0.0000 C   0  0  0  0  0  0  0  0  0  0  0  0
   -1.6083   -0.0000    0.0000 C   0  0  0  0  0  0  0  0  0  0  0  0
   -0.8042    0.4643    0.0000 C   0  0  0  0  0  0  0  0  0  0  0  0
   -0.0000   -0.0000    0.0000 C   0  0  0  0  0  0  0  0  0  0  0  0
    0.8042    0.4643    0.0000 N   0  3  0  0  0  0  0  0  0  0  0  0
    1.6083    0.0000    0.0000 O   0  0  0  0  0  0  0  0  0  0  0  0
    0.8042    1.3929    0.0000 O   0  5  0  0  0  0  0  0  0  0  0  0
  1  2  1  0  0  0  0
  2  3  1  0  0  0  0
  3  4  2  0  0  0  0
  3  5  1  0  0  0  0
  5 16  1  0  0  0  0
  5  6  2  0  0  0  0
  6  7  1  0  0  0  0
  6  8  1  0  0  0  0
  8  9  1  0  0  0  0
  9 10  1  0  0  0  0
  9 11  2  0  0  0  0
 11 12  1  0  0  0  0
 11 16  1  0  0  0  0
 12 13  2  0  0  0  0
 12 14  1  0  0  0  0
 14 15  1  0  0  0  0
 16 17  1  0  0  0  0
 17 22  1  0  0  0  0
 17 18  2  0  0  0  0
 18 19  1  0  0  0  0
 19 20  2  0  0  0  0
 20 21  1  0  0  0  0
 21 22  2  0  0  0  0
 22 23  1  0  0  0  0
 23 24  2  0  0  0  0
 23 25  1  0  0  0  0
M  CHG  2  23   1  25  -1
M  END
$$$$

 OpenBabel10082008492D

 29 31  0  0  0  0  0  0  0  0999 V2000
    2.5981    0.5000    0.0000 C   0  0  0  0  0  0  0  0  0  0  0  0
    1.7321    0.0000    0.0000 C   0  0  0  0  0  0  0  0  0  0  0  0
    0.8660   -0.5000    0.0000 C   0  0  0  0  0  0  0  0  0  0  0  0
    0.8660   -1.5000    0.0000 C   0  0  0  0  0  0  0  0  0  0  0  0
    0.0000   -2.0000    0.0000 C   0  0  0  0  0  0  0  0  0  0  0  0
   -0.8660   -1.5000    0.0000 C   0  0  0  0  0  0  0  0  0  0  0  0
   -0.8660   -0.5000    0.0000 C   0  0  0  0  0  0  0  0  0  0  0  0
   -1.7321   -0.0000    0.0000 N   0  0  0  0  0  0  0  0  0  0  0  0
   -2.5981   -0.5000    0.0000 C   0  0  0  0  0  0  0  0  0  0  0  0
   -3.4641   -0.0000    0.0000 N   0  0  0  0  0  0  0  0  0  0  0  0
   -4.3301   -0.5000    0.0000 C   0  0  0  0  0  0  0  0  0  0  0  0
   -4.3301   -1.5000    0.0000 N   0  0  0  0  0  0  0  0  0  0  0  0
   -3.4641   -2.0000    0.0000 C   0  0  0  0  0  0  0  0  0  0  0  0
   -3.4641   -3.0000    0.0000 C   0  0  0  0  0  0  0  0  0  0  0  0
   -2.5981   -3.5000    0.0000 C   0  0  0  0  0  0  0  0  0  0  0  0
   -2.5981   -4.5000    0.0000 O   0  0  0  0  0  0  0  0  0  0  0  0
   -1.7321   -5.0000    0.0000 C   0  0  0  0  0  0  0  0  0  0  0  0
   -0.8660   -4.5000    0.0000 C   0  0  0  0  0  0  0  0  0  0  0  0
    0.0000   -5.0000    0.0000 O   0  0  0  0  0  0  0  0  0  0  0  0
    0.8660   -4.5000    0.0000 C   0  0  0  0  0  0  0  0  0  0  0  0
   -1.7321   -3.0000    0.0000 C   0  0  0  0  0  0  0  0  0  0  0  0
   -0.8660   -3.5000    0.0000 O   0  0  0  0  0  0  0  0  0  0  0  0
    0.0000   -3.0000    0.0000 C   0  0  0  0  0  0  0  0  0  0  0  0
    0.8660   -3.5000    0.0000 C   0  0  0  0  0  0  0  0  0  0  0  0
    1.7321   -3.0000    0.0000 O   0  0  0  0  0  0  0  0  0  0  0  0
    2.5981   -3.5000    0.0000 C   0  0  0  0  0  0  0  0  0  0  0  0
   -1.7321   -2.0000    0.0000 C   0  0  0  0  0  0  0  0  0  0  0  0
   -2.5981   -1.5000    0.0000 C   0  0  0  0  0  0  0  0  0  0  0  0
    0.0000   -0.0000    0.0000 C   0  0  0  0  0  0  0  0  0  0  0  0
  1  2  3  0  0  0  0
  2  3  1  0  0  0  0
  3 29  1  0  0  0  0
  3  4  2  0  0  0  0
  4  5  1  0  0  0  0
  5  6  2  0  0  0  0
  6  7  1  0  0  0  0
  7  8  1  0  0  0  0
  7 29  2  0  0  0  0
  8  9  1  0  0  0  0
  9 28  1  0  0  0  0
  9 10  2  0  0  0  0
 10 11  1  0  0  0  0
 11 12  2  0  0  0  0
 12 13  1  0  0  0  0
 13 28  1  0  0  0  0
 13 14  2  0  0  0  0
 14 15  1  0  0  0  0
 15 16  1  0  0  0  0
 15 21  2  0  0  0  0
 16 17  1  0  0  0  0
 17 18  1  0  0  0  0
 18 19  1  0  0  0  0
 19 20  1  0  0  0  0
 21 22  1  0  0  0  0
 21 27  1  0  0  0  0
 22 23  1  0  0  0  0
 23 24  1  0  0  0  0
 24 25  1  0  0  0  0
 25 26  1  0  0  0  0
 27 28  2  0  0  0  0
M  END
$$$$

 OpenBabel10082008492D

 32 36  0  0  1  0  0  0  0  0999 V2000
   -1.3660   -2.3660    0.0000 C   0  0  0  0  0  0  0  0  0  0  0  0
   -0.8660   -1.5000    0.0000 C   0  0  2  0  0  0  0  0  0  0  0  0
   -0.3660   -2.3660    0.0000 H   0  0  0  0  0  0  0  0  0  0  0  0
   -0.0000   -1.0000    0.0000 N   0  0  0  0  0  0  0  0  0  0  0  0
    0.8660   -1.5000    0.0000 C   0  0  0  0  0  0  0  0  0  0  0  0
    1.7321   -1.0000    0.0000 N   0  0  0  0  0  0  0  0  0  0  0  0
    2.5981   -1.5000    0.0000 C   0  0  0  0  0  0  0  0  0  0  0  0
    2.5981   -2.5000    0.0000 N   0  0  0  0  0  0  0  0  0  0  0  0
    1.7321   -3.0000    0.0000 C   0  0  0  0  0  0  0  0  0  0  0  0
    1.5241   -3.9781    0.0000 N   0  0  0  0  0  0  0  0  0  0  0  0
    0.5296   -4.0827    0.0000 C   0  0  0  0  0  0  0  0  0  0  0  0
    0.1229   -3.1691    0.0000 N   0  0  0  0  0  0  0  0  0  0  0  0
   -0.8553   -2.9612    0.0000 H   0  0  0  0  0  0  0  0  0  0  0  0
    0.8660   -2.5000    0.0000 C   0  0  0  0  0  0  0  0  0  0  0  0
   -1.7321   -1.0000    0.0000 C   0  0  0  0  0  0  0  0  0  0  0  0
   -2.5981   -1.5000    0.0000 C   0  0  0  0  0  0  0  0  0  0  0  0
   -3.4641   -1.0000    0.0000 C   0  0  0  0  0  0  0  0  0  0  0  0
   -4.3301   -1.5000    0.0000 C   0  0  0  0  0  0  0  0  0  0  0  0
   -5.1962   -1.0000    0.0000 C   0  0  0  0  0  0  0  0  0  0  0  0
   -5.1962   -0.0000    0.0000 C   0  0  0  0  0  0  0  0  0  0  0  0
   -4.3301    0.5000    0.0000 C   0  0  0  0  0  0  0  0  0  0  0  0
   -4.3301    1.5000    0.0000 Cl  0  0  0  0  0  0  0  0  0  0  0  0
   -3.4641   -0.0000    0.0000 C   0  0  0  0  0  0  0  0  0  0  0  0
   -2.5981    0.5000    0.0000 C   0  0  0  0  0  0  0  0  0  0  0  0
   -2.5981    1.5000    0.0000 O   0  0  0  0  0  0  0  0  0  0  0  0
   -1.7321   -0.0000    0.0000 N   0  0  0  0  0  0  0  0  0  0  0  0
   -0.8660    0.5000    0.0000 C   0  0  0  0  0  0  0  0  0  0  0  0
   -0.8660    1.5000    0.0000 C   0  0  0  0  0  0  0  0  0  0  0  0
   -0.0000    2.0000    0.0000 C   0  0  0  0  0  0  0  0  0  0  0  0
    0.8660    1.5000    0.0000 C   0  0  0  0  0  0  0  0  0  0  0  0
    0.8660    0.5000    0.0000 C   0  0  0  0  0  0  0  0  0  0  0  0
   -0.0000   -0.0000    0.0000 C   0  0  0  0  0  0  0  0  0  0  0  0
  1  2  1  0  0  0  0
  2  3  1  6  0  0  0
  2  4  1  0  0  0  0
  2 15  1  0  0  0  0
  4  5  1  0  0  0  0
  5 14  1  0  0  0  0
  5  6  2  0  0  0  0
  6  7  1  0  0  0  0
  7  8  2  0  0  0  0
  8  9  1  0  0  0  0
  9 14  2  0  0  0  0
  9 10  1  0  0  0  0
 10 11  2  0  0  0  0
 11 12  1  0  0  0  0
 12 13  1  0  0  0  0
 12 14  1  0  0  0  0
 15 26  1  0  0  0  0
 15 16  2  0  0  0  0
 16 17  1  0  0  0  0
 17 23  1  0  0  0  0
 17 18  2  0  0  0  0
 18 19  1  0  0  0  0
 19 20  2  0  0  0  0
 20 21  1  0  0  0  0
 21 22  1  0  0  0  0
 21 23  2  0  0  0  0
 23 24  1  0  0  0  0
 24 25  2  0  0  0  0
 24 26  1  0  0  0  0
 26 27  1  0  0  0  0
 27 32  1  0  0  0  0
 27 28  2  0  0  0  0
 28 29  1  0  0  0  0
 29 30  2  0  0  0  0
 30 31  1  0  0  0  0
 31 32  2  0  0  0  0
M  END
$$$$

 OpenBabel10082008492D

 25 26  0  0  1  0  0  0  0  0999 V2000
    0.6930   -0.0823    0.0000 C   0  0  0  0  0  0  0  0  0  0  0  0
    1.6589   -0.3411    0.0000 C   0  0  0  0  0  0  0  0  0  0  0  0
    1.9177   -1.3070    0.0000 C   0  0  0  0  0  0  0  0  0  0  0  0
    2.3660    0.3660    0.0000 C   0  0  2  0  0  0  0  0  0  0  0  0
    3.2899   -0.0167    0.0000 H   0  0  0  0  0  0  0  0  0  0  0  0
    3.2321    0.8660    0.0000 C   0  0  0  0  0  0  0  0  0  0  0  0
    3.2321    1.8660    0.0000 C   0  0  0  0  0  0  0  0  0  0  0  0
    2.3660    2.3660    0.0000 C   0  0  0  0  0  0  0  0  0  0  0  0
    2.3660    3.3660    0.0000 C   0  0  0  0  0  0  0  0  0  0  0  0
    1.5000    1.8660    0.0000 C   0  0  0  0  0  0  0  0  0  0  0  0
    1.5000    0.8660    0.0000 C   0  0  1  0  0  0  0  0  0  0  0  0
    1.0000   -0.0000    0.0000 H   0  0  0  0  0  0  0  0  0  0  0  0
    0.5000    0.8660    0.0000 C   0  0  0  0  0  0  0  0  0  0  0  0
    0.0000    1.7321    0.0000 C   0  0  0  0  0  0  0  0  0  0  0  0
    0.5000    2.5981    0.0000 O   0  0  0  0  0  0  0  0  0  0  0  0
   -1.0000    1.7321    0.0000 C   0  0  0  0  0  0  0  0  0  0  0  0
   -1.5000    0.8660    0.0000 C   0  0  0  0  0  0  0  0  0  0  0  0
   -2.5000    0.8660    0.0000 C   0  0  0  0  0  0  0  0  0  0  0  0
   -3.0000    0.0000    0.0000 C   0  0  0  0  0  0  0  0  0  0  0  0
   -4.0000    0.0000    0.0000 C   0  0  0  0  0  0  0  0  0  0  0  0
   -4.5000   -0.8660    0.0000 C   0  0  0  0  0  0  0  0  0  0  0  0
   -5.5000   -0.8660    0.0000 C   0  0  0  0  0  0  0  0  0  0  0  0
   -1.0000    0.0000    0.0000 C   0  0  0  0  0  0  0  0  0  0  0  0
    0.0000   -0.0000    0.0000 C   0  0  0  0  0  0  0  0  0  0  0  0
    0.5000   -0.8660    0.0000 O   0  0  0  0  0  0  0  0  0  0  0  0
  1  2  2  0  0  0  0
  2  3  1  0  0  0  0
  2  4  1  0  0  0  0
  4  5  1  6  0  0  0
  4 11  1  0  0  0  0
  4  6  1  0  0  0  0
  6  7  1  0  0  0  0
  7  8  1  0  0  0  0
  8  9  1  0  0  0  0
  8 10  2  0  0  0  0
 10 11  1  0  0  0  0
 11 12  1  1  0  0  0
 11 13  1  0  0  0  0
 13 24  1  0  0  0  0
 13 14  2  0  0  0  0
 14 15  1  0  0  0  0
 14 16  1  0  0  0  0
 16 17  2  0  0  0  0
 17 18  1  0  0  0  0
 17 23  1  0  0  0  0
 18 19  1  0  0  0  0
 19 20  1  0  0  0  0
 20 21  1  0  0  0  0
 21 22  1  0  0  0  0
 23 24  2  0  0  0  0
 24 25  1  0  0  0  0
M  END
$$$$

 OpenBabel10082008492D

 42 46  0  0  1  0  0  0  0  0999 V2000
   -2.5428    0.4894    0.0000 C   0  0  0  0  0  0  0  0  0  0  0  0
   -1.6952   -0.0000    0.0000 O   0  0  0  0  0  0  0  0  0  0  0  0
   -0.8476    0.4894    0.0000 C   0  0  0  0  0  0  0  0  0  0  0  0
   -0.8476    1.4681    0.0000 C   0  0  0  0  0  0  0  0  0  0  0  0
   -0.0000    1.9574    0.0000 C   0  0  0  0  0  0  0  0  0  0  0  0
    0.8476    1.4681    0.0000 C   0  0  0  0  0  0  0  0  0  0  0  0
    0.8476    0.4894    0.0000 C   0  0  0  0  0  0  0  0  0  0  0  0
    1.6952    0.0000    0.0000 N   0  0  0  0  0  0  0  0  0  0  0  0
    2.5428    0.4894    0.0000 C   0  0  0  0  0  0  0  0  0  0  0  0
    3.3904    0.0000    0.0000 C   0  0  0  0  0  0  0  0  0  0  0  0
    3.3904   -0.9787    0.0000 N   0  0  0  0  0  0  0  0  0  0  0  0
    4.2380   -1.4681    0.0000 C   0  0  0  0  0  0  0  0  0  0  0  0
    5.0856   -0.9787    0.0000 N   0  0  0  0  0  0  0  0  0  0  0  0
    5.9332   -1.4681    0.0000 C   0  0  0  0  0  0  0  0  0  0  0  0
    6.7808   -0.9787    0.0000 C   0  0  0  0  0  0  0  0  0  0  0  0
    6.7808    0.0000    0.0000 F   0  0  0  0  0  0  0  0  0  0  0  0
    7.6284   -1.4681    0.0000 C   0  0  0  0  0  0  0  0  0  0  0  0
    7.6284   -2.4468    0.0000 C   0  0  0  0  0  0  0  0  0  0  0  0
    6.7808   -2.9362    0.0000 C   0  0  0  0  0  0  0  0  0  0  0  0
    5.9332   -2.4468    0.0000 C   0  0  0  0  0  0  0  0  0  0  0  0
    5.0856   -2.9362    0.0000 C   0  0  2  0  0  0  0  0  0  0  0  0
    4.5962   -3.7838    0.0000 H   0  0  0  0  0  0  0  0  0  0  0  0
    6.0643   -4.6314    0.0000 C   0  0  0  0  0  0  0  0  0  0  0  0
    5.5750   -5.4790    0.0000 C   0  0  0  0  0  0  0  0  0  0  0  0
    4.5962   -5.4790    0.0000 O   0  0  0  0  0  0  0  0  0  0  0  0
    6.0643   -6.3266    0.0000 O   0  0  0  0  0  0  0  0  0  0  0  0
    4.2380   -2.4468    0.0000 N   0  0  0  0  0  0  0  0  0  0  0  0
    3.3904   -2.9362    0.0000 C   0  0  0  0  0  0  0  0  0  0  0  0
    2.5428   -2.4468    0.0000 C   0  0  0  0  0  0  0  0  0  0  0  0
    1.6952   -2.9362    0.0000 C   0  0  0  0  0  0  0  0  0  0  0  0
    0.8476   -2.4468    0.0000 C   0  0  0  0  0  0  0  0  0  0  0  0
    0.3582   -1.5992    0.0000 F   0  0  0  0  0  0  0  0  0  0  0  0
    1.3370   -1.5992    0.0000 F   0  0  0  0  0  0  0  0  0  0  0  0
   -0.0000   -2.9362    0.0000 F   0  0  0  0  0  0  0  0  0  0  0  0
    1.6952   -3.9149    0.0000 C   0  0  0  0  0  0  0  0  0  0  0  0
    2.5428   -4.4043    0.0000 C   0  0  0  0  0  0  0  0  0  0  0  0
    3.3904   -3.9149    0.0000 C   0  0  0  0  0  0  0  0  0  0  0  0
    4.2380   -4.4043    0.0000 O   0  0  0  0  0  0  0  0  0  0  0  0
    5.0856   -3.9149    0.0000 C   0  0  0  0  0  0  0  0  0  0  0  0
    2.5428   -1.4681    0.0000 C   0  0  0  0  0  0  0  0  0  0  0  0
    1.6952   -0.9787    0.0000 C   0  0  0  0  0  0  0  0  0  0  0  0
    0.0000   -0.0000    0.0000 C   0  0  0  0  0  0  0  0  0  0  0  0
  1  2  1  0  0  0  0
  2  3  1  0  0  0  0
  3 42  1  0  0  0  0
  3  4  2  0  0  0  0
  4  5  1  0  0  0  0
  5  6  2  0  0  0  0
  6  7  1  0  0  0  0
  7  8  1  0  0  0  0
  7 42  2  0  0  0  0
  8 41  1  0  0  0  0
  8  9  1  0  0  0  0
  9 10  1  0  0  0  0
 10 11  1  0  0  0  0
 11 12  1  0  0  0  0
 11 40  1  0  0  0  0
 12 27  1  0  0  0  0
 12 13  2  0  0  0  0
 13 14  1  0  0  0  0
 14 20  1  0  0  0  0
 14 15  2  0  0  0  0
 15 16  1  0  0  0  0
 15 17  1  0  0  0  0
 17 18  2  0  0  0  0
 18 19  1  0  0  0  0
 19 20  2  0  0  0  0
 20 21  1  0  0  0  0
 21 22  1  1  0  0  0
 21 23  1  0  0  0  0
 21 27  1  0  0  0  0
 23 24  1  0  0  0  0
 24 25  2  0  0  0  0
 24 26  1  0  0  0  0
 27 28  1  0  0  0  0
 28 37  1  0  0  0  0
 28 29  2  0  0  0  0
 29 30  1  0  0  0  0
 30 31  1  0  0  0  0
 30 35  2  0  0  0  0
 31 32  1  0  0  0  0
 31 33  1  0  0  0  0
 31 34  1  0  0  0  0
 35 36  1  0  0  0  0
 36 37  2  0  0  0  0
 37 38  1  0  0  0  0
 38 39  1  0  0  0  0
 40 41  1  0  0  0  0
M  END
$$$$

 OpenBabel10082008492D

 40 43  0  0  1  0  0  0  0  0999 V2000
    1.7321   -0.0000    0.0000 C   0  0  0  0  0  0  0  0  0  0  0  0
    0.8660   -0.5000    0.0000 N   0  0  0  0  0  0  0  0  0  0  0  0
    0.8660   -1.5000    0.0000 C   0  0  0  0  0  0  0  0  0  0  0  0
    0.0000   -2.0000    0.0000 C   0  0  0  0  0  0  0  0  0  0  0  0
   -0.8660   -1.5000    0.0000 C   0  0  0  0  0  0  0  0  0  0  0  0
   -1.8171   -1.8090    0.0000 N   0  0  0  0  0  0  0  0  0  0  0  0
   -2.4049   -1.0000    0.0000 C   0  0  0  0  0  0  0  0  0  0  0  0
   -3.4049   -1.0000    0.0000 C   0  0  0  0  0  0  0  0  0  0  0  0
   -3.9049   -0.1340    0.0000 O   0  0  0  0  0  0  0  0  0  0  0  0
   -3.9049   -1.8660    0.0000 N   0  0  0  0  0  0  0  0  0  0  0  0
   -3.4049   -2.7321    0.0000 C   0  0  2  0  0  0  0  0  0  0  0  0
   -2.4134   -2.6015    0.0000 H   0  0  0  0  0  0  0  0  0  0  0  0
   -2.6978   -3.4392    0.0000 C   0  0  0  0  0  0  0  0  0  0  0  0
   -2.9566   -4.4051    0.0000 C   0  0  1  0  0  0  0  0  0  0  0  0
   -2.6978   -5.3710    0.0000 H   0  0  0  0  0  0  0  0  0  0  0  0
   -1.9907   -4.6639    0.0000 C   0  0  0  0  0  0  0  0  0  0  0  0
   -1.7318   -5.6298    0.0000 O   0  0  0  0  0  0  0  0  0  0  0  0
   -1.2835   -3.9568    0.0000 N   0  0  0  0  0  0  0  0  0  0  0  0
   -0.3176   -4.2156    0.0000 C   0  0  0  0  0  0  0  0  0  0  0  0
   -1.5424   -2.9909    0.0000 C   0  0  0  0  0  0  0  0  0  0  0  0
   -3.9225   -4.6639    0.0000 C   0  0  0  0  0  0  0  0  0  0  0  0
   -4.6296   -3.9568    0.0000 C   0  0  0  0  0  0  0  0  0  0  0  0
   -4.3708   -2.9909    0.0000 C   0  0  2  0  0  0  0  0  0  0  0  0
   -4.6296   -2.0249    0.0000 H   0  0  0  0  0  0  0  0  0  0  0  0
   -5.3367   -2.7321    0.0000 N   0  0  0  0  0  0  0  0  0  0  0  0
   -5.5955   -1.7661    0.0000 C   0  0  0  0  0  0  0  0  0  0  0  0
   -4.8884   -1.0590    0.0000 O   0  0  0  0  0  0  0  0  0  0  0  0
   -6.5615   -1.5073    0.0000 C   0  0  0  0  0  0  0  0  0  0  0  0
   -6.8203   -0.5414    0.0000 O   0  0  0  0  0  0  0  0  0  0  0  0
   -7.2686   -2.2144    0.0000 N   0  0  0  0  0  0  0  0  0  0  0  0
   -8.2345   -1.9556    0.0000 C   0  0  0  0  0  0  0  0  0  0  0  0
   -8.9416   -2.6627    0.0000 C   0  0  0  0  0  0  0  0  0  0  0  0
   -9.9075   -2.4039    0.0000 C   0  0  0  0  0  0  0  0  0  0  0  0
  -10.1663   -1.4380    0.0000 C   0  0  0  0  0  0  0  0  0  0  0  0
  -11.1323   -1.1791    0.0000 Cl  0  0  0  0  0  0  0  0  0  0  0  0
   -9.4592   -0.7308    0.0000 C   0  0  0  0  0  0  0  0  0  0  0  0
   -8.4933   -0.9897    0.0000 N   0  0  0  0  0  0  0  0  0  0  0  0
   -1.8171   -0.1910    0.0000 S   0  0  0  0  0  0  0  0  0  0  0  0
   -0.8660   -0.5000    0.0000 C   0  0  0  0  0  0  0  0  0  0  0  0
    0.0000    0.0000    0.0000 C   0  0  0  0  0  0  0  0  0  0  0  0
  1  2  1  0  0  0  0
  2 40  1  0  0  0  0
  2  3  1  0  0  0  0
  3  4  1  0  0  0  0
  4  5  1  0  0  0  0
  5 39  2  0  0  0  0
  5  6  1  0  0  0  0
  6  7  2  0  0  0  0
  7  8  1  0  0  0  0
  7 38  1  0  0  0  0
  8  9  2  0  0  0  0
  8 10  1  0  0  0  0
 10 11  1  0  0  0  0
 11 12  1  1  0  0  0
 11 23  1  0  0  0  0
 11 13  1  0  0  0  0
 13 14  1  0  0  0  0
 14 15  1  6  0  0  0
 14 16  1  0  0  0  0
 14 21  1  0  0  0  0
 16 17  2  0  0  0  0
 16 18  1  0  0  0  0
 18 19  1  0  0  0  0
 18 20  1  0  0  0  0
 21 22  1  0  0  0  0
 22 23  1  0  0  0  0
 23 24  1  1  0  0  0
 23 25  1  0  0  0  0
 25 26  1  0  0  0  0
 26 27  2  0  0  0  0
 26 28  1  0  0  0  0
 28 29  2  0  0  0  0
 28 30  1  0  0  0  0
 30 31  1  0  0  0  0
 31 37  1  0  0  0  0
 31 32  2  0  0  0  0
 32 33  1  0  0  0  0
 33 34  2  0  0  0  0
 34 35  1  0  0  0  0
 34 36  1  0  0  0  0
 36 37  2  0  0  0  0
 38 39  1  0  0  0  0
 39 40  1  0  0  0  0
M  END
$$$$

 OpenBabel10082008492D

 20 22  0  0  0  0  0  0  0  0999 V2000
    1.9595    2.1637    0.0000 C   0  0  0  0  0  0  0  0  0  0  0  0
    2.7026    1.4945    0.0000 N   0  0  0  0  0  0  0  0  0  0  0  0
    3.6808    1.7024    0.0000 C   0  0  0  0  0  0  0  0  0  0  0  0
    4.1808    0.8364    0.0000 N   0  0  0  0  0  0  0  0  0  0  0  0
    3.5116    0.0933    0.0000 C   0  0  0  0  0  0  0  0  0  0  0  0
    3.7195   -0.8849    0.0000 N   0  3  0  0  0  0  0  0  0  0  0  0
    2.9764   -1.5540    0.0000 O   0  0  0  0  0  0  0  0  0  0  0  0
    4.6706   -1.1939    0.0000 O   0  5  0  0  0  0  0  0  0  0  0  0
    2.5981    0.5000    0.0000 C   0  0  0  0  0  0  0  0  0  0  0  0
    1.7321   -0.0000    0.0000 S   0  0  0  0  0  0  0  0  0  0  0  0
    0.8660    0.5000    0.0000 C   0  0  0  0  0  0  0  0  0  0  0  0
    0.8660    1.5000    0.0000 N   0  0  0  0  0  0  0  0  0  0  0  0
    0.0000    2.0000    0.0000 C   0  0  0  0  0  0  0  0  0  0  0  0
   -0.8660    1.5000    0.0000 N   0  0  0  0  0  0  0  0  0  0  0  0
   -0.8660    0.5000    0.0000 C   0  0  0  0  0  0  0  0  0  0  0  0
   -1.6092   -0.1691    0.0000 N   0  0  0  0  0  0  0  0  0  0  0  0
   -1.2024   -1.0827    0.0000 C   0  0  0  0  0  0  0  0  0  0  0  0
   -0.2079   -0.9781    0.0000 N   0  0  0  0  0  0  0  0  0  0  0  0
    0.4612   -1.7213    0.0000 H   0  0  0  0  0  0  0  0  0  0  0  0
    0.0000   -0.0000    0.0000 C   0  0  0  0  0  0  0  0  0  0  0  0
  1  2  1  0  0  0  0
  2  9  1  0  0  0  0
  2  3  1  0  0  0  0
  3  4  2  0  0  0  0
  4  5  1  0  0  0  0
  5  6  1  0  0  0  0
  5  9  2  0  0  0  0
  6  7  2  0  0  0  0
  6  8  1  0  0  0  0
  9 10  1  0  0  0  0
 10 11  1  0  0  0  0
 11 20  1  0  0  0  0
 11 12  2  0  0  0  0
 12 13  1  0  0  0  0
 13 14  2  0  0  0  0
 14 15  1  0  0  0  0
 15 20  2  0  0  0  0
 15 16  1  0  0  0  0
 16 17  2  0  0  0  0
 17 18  1  0  0  0  0
 18 19  1  0  0  0  0
 18 20  1  0  0  0  0
M  CHG  2   6   1   8  -1
M  END
$$$$

 OpenBabel10082008492D

 15 15  0  0  1  0  0  0  0  0999 V2000
    2.5981   -2.5000    0.0000 C   0  0  0  0  0  0  0  0  0  0  0  0
    1.7321   -2.0000    0.0000 C   0  0  2  0  0  0  0  0  0  0  0  0
    2.2321   -1.1340    0.0000 N   0  0  0  0  0  0  0  0  0  0  0  0
    0.8660   -1.5000    0.0000 C   0  0  0  0  0  0  0  0  0  0  0  0
    0.8660   -0.5000    0.0000 C   0  0  0  0  0  0  0  0  0  0  0  0
    1.7321   -0.0000    0.0000 C   0  0  0  0  0  0  0  0  0  0  0  0
    1.7321    1.0000    0.0000 C   0  0  0  0  0  0  0  0  0  0  0  0
    0.8660    1.5000    0.0000 C   0  0  0  0  0  0  0  0  0  0  0  0
    0.8660    2.5000    0.0000 O   0  0  0  0  0  0  0  0  0  0  0  0
    0.0000    1.0000    0.0000 C   0  0  0  0  0  0  0  0  0  0  0  0
   -0.8660    1.5000    0.0000 O   0  0  0  0  0  0  0  0  0  0  0  0
   -0.0000   -0.0000    0.0000 C   0  0  0  0  0  0  0  0  0  0  0  0
    1.2321   -2.8660    0.0000 C   0  0  0  0  0  0  0  0  0  0  0  0
    0.2321   -2.8660    0.0000 O   0  0  0  0  0  0  0  0  0  0  0  0
    1.7321   -3.7321    0.0000 O   0  0  0  0  0  0  0  0  0  0  0  0
  2  1  1  1  0  0  0
  2  3  1  0  0  0  0
  2  4  1  0  0  0  0
  2 13  1  0  0  0  0
  4  5  1  0  0  0  0
  5 12  1  0  0  0  0
  5  6  2  0  0  0  0
  6  7  1  0  0  0  0
  7  8  2  0  0  0  0
  8  9  1  0  0  0  0
  8 10  1  0  0  0  0
 10 11  1  0  0  0  0
 10 12  2  0  0  0  0
 13 14  2  0  0  0  0
 13 15  1  0  0  0  0
M  END
$$$$

 OpenBabel10082008492D

 29 30  0  0  1  0  0  0  0  0999 V2000
   -2.0000   -2.7321    0.0000 C   0  0  0  0  0  0  0  0  0  0  0  0
   -1.5000   -1.8660    0.0000 C   0  0  3  0  0  0  0  0  0  0  0  0
   -0.6340   -2.3660    0.0000 O   0  0  0  0  0  0  0  0  0  0  0  0
   -1.0000   -1.0000    0.0000 C   0  0  0  0  0  0  0  0  0  0  0  0
    0.0000   -1.0000    0.0000 S   0  0  0  0  0  0  0  0  0  0  0  0
   -0.0000   -2.0000    0.0000 O   0  0  0  0  0  0  0  0  0  0  0  0
    1.0000   -1.0000    0.0000 O   0  0  0  0  0  0  0  0  0  0  0  0
    0.0000    0.0000    0.0000 C   0  0  0  0  0  0  0  0  0  0  0  0
   -0.8660    0.5000    0.0000 C   0  0  0  0  0  0  0  0  0  0  0  0
   -0.8660    1.5000    0.0000 C   0  0  0  0  0  0  0  0  0  0  0  0
    0.0000    2.0000    0.0000 C   0  0  0  0  0  0  0  0  0  0  0  0
    0.0000    3.0000    0.0000 F   0  0  0  0  0  0  0  0  0  0  0  0
    0.8660    1.5000    0.0000 C   0  0  0  0  0  0  0  0  0  0  0  0
    0.8660    0.5000    0.0000 C   0  0  0  0  0  0  0  0  0  0  0  0
   -2.3660   -1.3660    0.0000 C   0  0  0  0  0  0  0  0  0  0  0  0
   -2.3660   -0.3660    0.0000 O   0  0  0  0  0  0  0  0  0  0  0  0
   -3.2321   -1.8660    0.0000 N   0  0  0  0  0  0  0  0  0  0  0  0
   -4.0981   -1.3660    0.0000 C   0  0  0  0  0  0  0  0  0  0  0  0
   -4.9641   -1.8660    0.0000 C   0  0  0  0  0  0  0  0  0  0  0  0
   -5.8301   -1.3660    0.0000 C   0  0  0  0  0  0  0  0  0  0  0  0
   -5.8301   -0.3660    0.0000 C   0  0  0  0  0  0  0  0  0  0  0  0
   -6.6962    0.1340    0.0000 C   0  0  0  0  0  0  0  0  0  0  0  0
   -7.5622    0.6340    0.0000 N   0  0  0  0  0  0  0  0  0  0  0  0
   -4.9641    0.1340    0.0000 C   0  0  0  0  0  0  0  0  0  0  0  0
   -4.9641    1.1340    0.0000 C   0  0  0  0  0  0  0  0  0  0  0  0
   -5.4641    2.0000    0.0000 F   0  0  0  0  0  0  0  0  0  0  0  0
   -5.9641    1.1340    0.0000 F   0  0  0  0  0  0  0  0  0  0  0  0
   -4.0981    1.6340    0.0000 F   0  0  0  0  0  0  0  0  0  0  0  0
   -4.0981   -0.3660    0.0000 C   0  0  0  0  0  0  0  0  0  0  0  0
  1  2  1  0  0  0  0
  2  3  1  0  0  0  0
  2  4  1  0  0  0  0
  2 15  1  0  0  0  0
  4  5  1  0  0  0  0
  5  6  2  0  0  0  0
  5  7  2  0  0  0  0
  5  8  1  0  0  0  0
  8 14  1  0  0  0  0
  8  9  2  0  0  0  0
  9 10  1  0  0  0  0
 10 11  2  0  0  0  0
 11 12  1  0  0  0  0
 11 13  1  0  0  0  0
 13 14  2  0  0  0  0
 15 16  2  0  0  0  0
 15 17  1  0  0  0  0
 17 18  1  0  0  0  0
 18 29  1  0  0  0  0
 18 19  2  0  0  0  0
 19 20  1  0  0  0  0
 20 21  2  0  0  0  0
 21 22  1  0  0  0  0
 21 24  1  0  0  0  0
 22 23  3  0  0  0  0
 24 25  1  0  0  0  0
 24 29  2  0  0  0  0
 25 26  1  0  0  0  0
 25 27  1  0  0  0  0
 25 28  1  0  0  0  0
M  END
$$$$

 OpenBabel10082008492D

 52 56  0  0  1  0  0  0  0  0999 V2000
   -7.1263   -0.8875    0.0000 C   0  0  0  0  0  0  0  0  0  0  0  0
   -7.5331    0.0261    0.0000 N   0  0  0  0  0  0  0  0  0  0  0  0
   -6.9453    0.8351    0.0000 C   0  0  0  0  0  0  0  0  0  0  0  0
   -7.3520    1.7486    0.0000 C   0  0  0  0  0  0  0  0  0  0  0  0
   -8.3465    1.8532    0.0000 O   0  0  0  0  0  0  0  0  0  0  0  0
   -6.7642    2.5576    0.0000 O   0  0  0  0  0  0  0  0  0  0  0  0
   -5.7697    2.4531    0.0000 C   0  0  0  0  0  0  0  0  0  0  0  0
   -5.3630    1.5396    0.0000 C   0  0  0  0  0  0  0  0  0  0  0  0
   -5.9508    0.7306    0.0000 C   0  0  0  0  0  0  0  0  0  0  0  0
   -5.5440   -0.1830    0.0000 C   0  0  0  0  0  0  0  0  0  0  0  0
   -4.5495   -0.2875    0.0000 C   0  0  0  0  0  0  0  0  0  0  0  0
   -3.9617    0.5215    0.0000 N   0  0  0  0  0  0  0  0  0  0  0  0
   -4.3684    1.4350    0.0000 C   0  0  0  0  0  0  0  0  0  0  0  0
   -3.7807    2.2441    0.0000 N   0  0  0  0  0  0  0  0  0  0  0  0
   -4.1874    3.1576    0.0000 C   0  0  0  0  0  0  0  0  0  0  0  0
   -2.7861    2.1395    0.0000 C   0  0  0  0  0  0  0  0  0  0  0  0
   -2.1984    2.9485    0.0000 O   0  0  0  0  0  0  0  0  0  0  0  0
   -2.3794    1.2260    0.0000 O   0  0  0  0  0  0  0  0  0  0  0  0
   -1.3849    1.1215    0.0000 C   0  0  3  0  0  0  0  0  0  0  0  0
   -0.7971    1.9305    0.0000 C   0  0  0  0  0  0  0  0  0  0  0  0
   -0.9781    0.2079    0.0000 N   0  3  0  0  0  0  0  0  0  0  0  0
   -1.4781   -0.6581    0.0000 C   0  0  0  0  0  0  0  0  0  0  0  0
   -0.8090   -1.4013    0.0000 N   0  0  0  0  0  0  0  0  0  0  0  0
    0.1045   -0.9945    0.0000 N   0  0  0  0  0  0  0  0  0  0  0  0
    0.9706   -1.4945    0.0000 C   0  0  0  0  0  0  0  0  0  0  0  0
    0.9706   -2.4945    0.0000 C   0  0  2  0  0  0  0  0  0  0  0  0
   -0.0294   -2.4945    0.0000 O   0  0  0  0  0  0  0  0  0  0  0  0
    0.9706   -3.4945    0.0000 C   0  0  0  0  0  0  0  0  0  0  0  0
    1.8366   -3.9945    0.0000 C   0  0  0  0  0  0  0  0  0  0  0  0
    1.8366   -4.9945    0.0000 C   0  0  0  0  0  0  0  0  0  0  0  0
    2.7026   -5.4945    0.0000 F   0  0  0  0  0  0  0  0  0  0  0  0
    0.9706   -5.4945    0.0000 C   0  0  0  0  0  0  0  0  0  0  0  0
    0.1045   -4.9945    0.0000 C   0  0  0  0  0  0  0  0  0  0  0  0
    0.1045   -3.9945    0.0000 C   0  0  0  0  0  0  0  0  0  0  0  0
   -0.7615   -3.4945    0.0000 F   0  0  0  0  0  0  0  0  0  0  0  0
    1.9706   -2.4945    0.0000 C   0  0  1  0  0  0  0  0  0  0  0  0
    2.8366   -2.9945    0.0000 H   0  0  0  0  0  0  0  0  0  0  0  0
    1.9706   -3.4945    0.0000 C   0  0  0  0  0  0  0  0  0  0  0  0
    2.4706   -1.6285    0.0000 C   0  0  0  0  0  0  0  0  0  0  0  0
    3.4651   -1.5240    0.0000 N   0  0  0  0  0  0  0  0  0  0  0  0
    3.6730   -0.5458    0.0000 C   0  0  0  0  0  0  0  0  0  0  0  0
    4.5865   -0.1391    0.0000 C   0  0  0  0  0  0  0  0  0  0  0  0
    5.3955   -0.7269    0.0000 C   0  0  0  0  0  0  0  0  0  0  0  0
    6.3091   -0.3201    0.0000 C   0  0  0  0  0  0  0  0  0  0  0  0
    6.4136    0.6744    0.0000 C   0  0  0  0  0  0  0  0  0  0  0  0
    7.3272    1.0811    0.0000 C   0  0  0  0  0  0  0  0  0  0  0  0
    8.2407    1.4879    0.0000 N   0  0  0  0  0  0  0  0  0  0  0  0
    5.6046    1.2622    0.0000 C   0  0  0  0  0  0  0  0  0  0  0  0
    4.6911    0.8554    0.0000 C   0  0  0  0  0  0  0  0  0  0  0  0
    2.8070   -0.0458    0.0000 C   0  0  0  0  0  0  0  0  0  0  0  0
    2.0638   -0.7150    0.0000 S   0  0  0  0  0  0  0  0  0  0  0  0
    0.0000   -0.0000    0.0000 C   0  0  0  0  0  0  0  0  0  0  0  0
  1  2  1  0  0  0  0
  2  3  1  0  0  0  0
  3  4  1  0  0  0  0
  4  5  2  0  0  0  0
  4  6  1  0  0  0  0
  6  7  1  0  0  0  0
  7  8  1  0  0  0  0
  8 13  1  0  0  0  0
  8  9  2  0  0  0  0
  9 10  1  0  0  0  0
 10 11  2  0  0  0  0
 11 12  1  0  0  0  0
 12 13  2  0  0  0  0
 13 14  1  0  0  0  0
 14 15  1  0  0  0  0
 14 16  1  0  0  0  0
 16 17  2  0  0  0  0
 16 18  1  0  0  0  0
 18 19  1  0  0  0  0
 19 20  1  0  0  0  0
 19 21  1  0  0  0  0
 21 52  2  0  0  0  0
 21 22  1  0  0  0  0
 22 23  2  0  0  0  0
 23 24  1  0  0  0  0
 24 25  1  0  0  0  0
 24 52  1  0  0  0  0
 26 25  1  1  0  0  0
 26 27  1  0  0  0  0
 26 28  1  0  0  0  0
 26 36  1  0  0  0  0
 28 34  1  0  0  0  0
 28 29  2  0  0  0  0
 29 30  1  0  0  0  0
 30 31  1  0  0  0  0
 30 32  2  0  0  0  0
 32 33  1  0  0  0  0
 33 34  2  0  0  0  0
 34 35  1  0  0  0  0
 36 37  1  1  0  0  0
 36 38  1  0  0  0  0
 36 39  1  0  0  0  0
 39 51  1  0  0  0  0
 39 40  2  0  0  0  0
 40 41  1  0  0  0  0
 41 42  1  0  0  0  0
 41 50  2  0  0  0  0
 42 49  1  0  0  0  0
 42 43  2  0  0  0  0
 43 44  1  0  0  0  0
 44 45  2  0  0  0  0
 45 46  1  0  0  0  0
 45 48  1  0  0  0  0
 46 47  3  0  0  0  0
 48 49  2  0  0  0  0
 50 51  1  0  0  0  0
M  CHG  1  21   1
M  END
$$$$

 OpenBabel10082008492D

 18 18  0  0  1  0  0  0  0  0999 V2000
   -6.0000   -4.4641    0.0000 C   0  0  0  0  0  0  0  0  0  0  0  0
   -5.5000   -5.3301    0.0000 C   0  0  0  0  0  0  0  0  0  0  0  0
   -6.0000   -6.1962    0.0000 C   0  0  0  0  0  0  0  0  0  0  0  0
   -4.5000   -5.3301    0.0000 N   0  0  0  0  0  0  0  0  0  0  0  0
   -4.0000   -4.4641    0.0000 C   0  0  0  0  0  0  0  0  0  0  0  0
   -3.0000   -4.4641    0.0000 C   0  0  3  0  0  0  0  0  0  0  0  0
   -2.5000   -5.3301    0.0000 O   0  0  0  0  0  0  0  0  0  0  0  0
   -2.5000   -3.5981    0.0000 C   0  0  0  0  0  0  0  0  0  0  0  0
   -3.0000   -2.7321    0.0000 C   0  0  0  0  0  0  0  0  0  0  0  0
   -2.5000   -1.8660    0.0000 C   0  0  0  0  0  0  0  0  0  0  0  0
   -1.5000   -1.8660    0.0000 C   0  0  0  0  0  0  0  0  0  0  0  0
   -1.0000   -1.0000    0.0000 N   0  0  0  0  0  0  0  0  0  0  0  0
    0.0000   -1.0000    0.0000 S   0  0  0  0  0  0  0  0  0  0  0  0
    0.0000   -2.0000    0.0000 C   0  0  0  0  0  0  0  0  0  0  0  0
    1.0000   -1.0000    0.0000 O   0  0  0  0  0  0  0  0  0  0  0  0
    0.0000   -0.0000    0.0000 O   0  0  0  0  0  0  0  0  0  0  0  0
   -1.0000   -2.7321    0.0000 C   0  0  0  0  0  0  0  0  0  0  0  0
   -1.5000   -3.5981    0.0000 C   0  0  0  0  0  0  0  0  0  0  0  0
  1  2  1  0  0  0  0
  2  3  1  0  0  0  0
  2  4  1  0  0  0  0
  4  5  1  0  0  0  0
  5  6  1  0  0  0  0
  6  7  1  0  0  0  0
  6  8  1  0  0  0  0
  8 18  1  0  0  0  0
  8  9  2  0  0  0  0
  9 10  1  0  0  0  0
 10 11  2  0  0  0  0
 11 12  1  0  0  0  0
 11 17  1  0  0  0  0
 12 13  1  0  0  0  0
 13 14  1  0  0  0  0
 13 15  2  0  0  0  0
 13 16  2  0  0  0  0
 17 18  2  0  0  0  0
M  END
$$$$

 OpenBabel10082008492D

 20 20  0  0  1  0  0  0  0  0999 V2000
    3.4641    1.0000    0.0000 N   0  0  0  0  0  0  0  0  0  0  0  0
    2.5981    0.5000    0.0000 C   0  0  1  0  0  0  0  0  0  0  0  0
    2.0981    1.3660    0.0000 H   0  0  0  0  0  0  0  0  0  0  0  0
    1.7321    0.0000    0.0000 C   0  0  0  0  0  0  0  0  0  0  0  0
    0.8660    0.5000    0.0000 C   0  0  0  0  0  0  0  0  0  0  0  0
    0.8660    1.5000    0.0000 C   0  0  0  0  0  0  0  0  0  0  0  0
    0.0000    2.0000    0.0000 C   0  0  0  0  0  0  0  0  0  0  0  0
   -0.8660    1.5000    0.0000 C   0  0  0  0  0  0  0  0  0  0  0  0
   -1.7321    2.0000    0.0000 N   0  0  0  0  0  0  0  0  0  0  0  0
   -2.5981    1.5000    0.0000 C   0  0  0  0  0  0  0  0  0  0  0  0
   -3.4641    2.0000    0.0000 C   0  0  0  0  0  0  0  0  0  0  0  0
   -3.4641    3.0000    0.0000 Cl  0  0  0  0  0  0  0  0  0  0  0  0
   -1.7321    3.0000    0.0000 C   0  0  0  0  0  0  0  0  0  0  0  0
   -2.5981    3.5000    0.0000 C   0  0  0  0  0  0  0  0  0  0  0  0
   -2.5981    4.5000    0.0000 Cl  0  0  0  0  0  0  0  0  0  0  0  0
   -0.8660    0.5000    0.0000 C   0  0  0  0  0  0  0  0  0  0  0  0
    0.0000   -0.0000    0.0000 C   0  0  0  0  0  0  0  0  0  0  0  0
    3.0981   -0.3660    0.0000 C   0  0  0  0  0  0  0  0  0  0  0  0
    2.5981   -1.2321    0.0000 O   0  0  0  0  0  0  0  0  0  0  0  0
    4.0981   -0.3660    0.0000 O   0  0  0  0  0  0  0  0  0  0  0  0
  1  2  1  0  0  0  0
  2  3  1  1  0  0  0
  2  4  1  0  0  0  0
  2 18  1  0  0  0  0
  4  5  1  0  0  0  0
  5 17  1  0  0  0  0
  5  6  2  0  0  0  0
  6  7  1  0  0  0  0
  7  8  2  0  0  0  0
  8  9  1  0  0  0  0
  8 16  1  0  0  0  0
  9 10  1  0  0  0  0
  9 13  1  0  0  0  0
 10 11  1  0  0  0  0
 11 12  1  0  0  0  0
 13 14  1  0  0  0  0
 14 15  1  0  0  0  0
 16 17  2  0  0  0  0
 18 19  2  0  0  0  0
 18 20  1  0  0  0  0
M  END
$$$$

 OpenBabel10082008492D

 16 17  0  0  1  0  0  0  0  0999 V2000
    2.0878    0.0570    0.0000 C   0  0  0  0  0  0  0  0  0  0  0  0
    1.5878   -0.8090    0.0000 C   0  0  3  0  0  0  0  0  0  0  0  0
    0.5878   -0.8090    0.0000 C   0  0  0  0  0  0  0  0  0  0  0  0
    0.0000   -1.6180    0.0000 C   0  0  0  0  0  0  0  0  0  0  0  0
   -0.9511   -1.3090    0.0000 C   0  0  0  0  0  0  0  0  0  0  0  0
   -1.8171   -1.8090    0.0000 C   0  0  0  0  0  0  0  0  0  0  0  0
   -2.6831   -1.3090    0.0000 C   0  0  0  0  0  0  0  0  0  0  0  0
   -2.6831   -0.3090    0.0000 C   0  0  0  0  0  0  0  0  0  0  0  0
   -1.8171    0.1910    0.0000 C   0  0  0  0  0  0  0  0  0  0  0  0
   -0.9511   -0.3090    0.0000 C   0  0  0  0  0  0  0  0  0  0  0  0
    0.0000   -0.0000    0.0000 S   0  0  0  0  0  0  0  0  0  0  0  0
    2.0878   -1.6750    0.0000 N   0  0  0  0  0  0  0  0  0  0  0  0
    1.5878   -2.5411    0.0000 O   0  0  0  0  0  0  0  0  0  0  0  0
    3.0878   -1.6750    0.0000 C   0  0  0  0  0  0  0  0  0  0  0  0
    3.5878   -2.5411    0.0000 N   0  0  0  0  0  0  0  0  0  0  0  0
    3.5878   -0.8090    0.0000 O   0  0  0  0  0  0  0  0  0  0  0  0
  1  2  1  0  0  0  0
  2  3  1  0  0  0  0
  2 12  1  0  0  0  0
  3 11  1  0  0  0  0
  3  4  2  0  0  0  0
  4  5  1  0  0  0  0
  5 10  1  0  0  0  0
  5  6  2  0  0  0  0
  6  7  1  0  0  0  0
  7  8  2  0  0  0  0
  8  9  1  0  0  0  0
  9 10  2  0  0  0  0
 10 11  1  0  0  0  0
 12 13  1  0  0  0  0
 12 14  1  0  0  0  0
 14 15  1  0  0  0  0
 14 16  2  0  0  0  0
M  END
$$$$

 OpenBabel10082008492D

 39 41  0  0  0  0  0  0  0  0999 V2000
   -6.1369   -2.0000    0.0000 C   0  0  0  0  0  0  0  0  0  0  0  0
   -5.6369   -2.8660    0.0000 C   0  0  0  0  0  0  0  0  0  0  0  0
   -4.6369   -2.8660    0.0000 C   0  0  0  0  0  0  0  0  0  0  0  0
   -4.1369   -2.0000    0.0000 C   0  0  0  0  0  0  0  0  0  0  0  0
   -3.1369   -2.0000    0.0000 C   0  0  0  0  0  0  0  0  0  0  0  0
   -2.5491   -2.8090    0.0000 O   0  0  0  0  0  0  0  0  0  0  0  0
   -1.5981   -2.5000    0.0000 C   0  0  0  0  0  0  0  0  0  0  0  0
   -0.7321   -3.0000    0.0000 C   0  0  0  0  0  0  0  0  0  0  0  0
    0.1340   -2.5000    0.0000 C   0  0  0  0  0  0  0  0  0  0  0  0
    0.1340   -1.5000    0.0000 C   0  0  0  0  0  0  0  0  0  0  0  0
    1.0000   -1.0000    0.0000 N   0  0  0  0  0  0  0  0  0  0  0  0
    1.0000   -0.0000    0.0000 S   0  0  0  0  0  0  0  0  0  0  0  0
    2.0000    0.0000    0.0000 C   0  0  0  0  0  0  0  0  0  0  0  0
    1.0000    1.0000    0.0000 O   0  0  0  0  0  0  0  0  0  0  0  0
    0.0000   -0.0000    0.0000 O   0  0  0  0  0  0  0  0  0  0  0  0
   -0.7321   -1.0000    0.0000 C   0  0  0  0  0  0  0  0  0  0  0  0
   -1.5981   -1.5000    0.0000 C   0  0  0  0  0  0  0  0  0  0  0  0
   -2.5491   -1.1910    0.0000 C   0  0  0  0  0  0  0  0  0  0  0  0
   -2.8581   -0.2399    0.0000 C   0  0  0  0  0  0  0  0  0  0  0  0
   -2.1890    0.5032    0.0000 O   0  0  0  0  0  0  0  0  0  0  0  0
   -3.8363   -0.0320    0.0000 C   0  0  0  0  0  0  0  0  0  0  0  0
   -4.5054   -0.7752    0.0000 C   0  0  0  0  0  0  0  0  0  0  0  0
   -5.4836   -0.5672    0.0000 C   0  0  0  0  0  0  0  0  0  0  0  0
   -5.7926    0.3838    0.0000 C   0  0  0  0  0  0  0  0  0  0  0  0
   -6.7707    0.5917    0.0000 O   0  0  0  0  0  0  0  0  0  0  0  0
   -7.4399   -0.1514    0.0000 C   0  0  0  0  0  0  0  0  0  0  0  0
   -7.1309   -1.1025    0.0000 C   0  0  0  0  0  0  0  0  0  0  0  0
   -7.8000   -1.8456    0.0000 C   0  0  0  0  0  0  0  0  0  0  0  0
   -7.4910   -2.7967    0.0000 N   0  0  0  0  0  0  0  0  0  0  0  0
   -8.1601   -3.5398    0.0000 C   0  0  0  0  0  0  0  0  0  0  0  0
   -7.8511   -4.4909    0.0000 C   0  0  0  0  0  0  0  0  0  0  0  0
   -8.5202   -5.2340    0.0000 C   0  0  0  0  0  0  0  0  0  0  0  0
   -8.2112   -6.1851    0.0000 C   0  0  0  0  0  0  0  0  0  0  0  0
   -6.5128   -3.0046    0.0000 C   0  0  0  0  0  0  0  0  0  0  0  0
   -6.2038   -3.9557    0.0000 C   0  0  0  0  0  0  0  0  0  0  0  0
   -6.8729   -4.6988    0.0000 C   0  0  0  0  0  0  0  0  0  0  0  0
   -6.5639   -5.6499    0.0000 C   0  0  0  0  0  0  0  0  0  0  0  0
   -5.1235    1.1270    0.0000 C   0  0  0  0  0  0  0  0  0  0  0  0
   -4.1453    0.9190    0.0000 C   0  0  0  0  0  0  0  0  0  0  0  0
  1  2  1  0  0  0  0
  2  3  1  0  0  0  0
  3  4  1  0  0  0  0
  4  5  1  0  0  0  0
  5 18  2  0  0  0  0
  5  6  1  0  0  0  0
  6  7  1  0  0  0  0
  7 17  1  0  0  0  0
  7  8  2  0  0  0  0
  8  9  1  0  0  0  0
  9 10  2  0  0  0  0
 10 11  1  0  0  0  0
 10 16  1  0  0  0  0
 11 12  1  0  0  0  0
 12 13  1  0  0  0  0
 12 14  2  0  0  0  0
 12 15  2  0  0  0  0
 16 17  2  0  0  0  0
 17 18  1  0  0  0  0
 18 19  1  0  0  0  0
 19 20  2  0  0  0  0
 19 21  1  0  0  0  0
 21 39  1  0  0  0  0
 21 22  2  0  0  0  0
 22 23  1  0  0  0  0
 23 24  2  0  0  0  0
 24 25  1  0  0  0  0
 24 38  1  0  0  0  0
 25 26  1  0  0  0  0
 26 27  1  0  0  0  0
 27 28  1  0  0  0  0
 28 29  1  0  0  0  0
 29 30  1  0  0  0  0
 29 34  1  0  0  0  0
 30 31  1  0  0  0  0
 31 32  1  0  0  0  0
 32 33  1  0  0  0  0
 34 35  1  0  0  0  0
 35 36  1  0  0  0  0
 36 37  1  0  0  0  0
 38 39  2  0  0  0  0
M  END
$$$$

 OpenBabel10082008492D

 33 37  0  0  1  0  0  0  0  0999 V2000
    0.9479    2.5032    0.0000 O   0  0  0  0  0  0  0  0  0  0  0  0
    0.2788    1.7601    0.0000 C   0  0  0  0  0  0  0  0  0  0  0  0
   -0.6994    1.9680    0.0000 N   0  0  0  0  0  0  0  0  0  0  0  0
   -1.0084    2.9190    0.0000 C   0  0  0  0  0  0  0  0  0  0  0  0
   -0.4206    3.7281    0.0000 C   0  0  0  0  0  0  0  0  0  0  0  0
   -1.0084    4.5371    0.0000 N   0  0  0  0  0  0  0  0  0  0  0  0
   -1.9595    4.2281    0.0000 N   0  0  0  0  0  0  0  0  0  0  0  0
   -2.8255    4.7281    0.0000 C   0  0  0  0  0  0  0  0  0  0  0  0
   -3.6915    4.2281    0.0000 C   0  0  0  0  0  0  0  0  0  0  0  0
   -3.6915    3.2281    0.0000 C   0  0  0  0  0  0  0  0  0  0  0  0
   -4.5575    2.7281    0.0000 N   0  0  0  0  0  0  0  0  0  0  0  0
   -5.4711    3.1348    0.0000 C   0  0  0  0  0  0  0  0  0  0  0  0
   -6.1402    2.3917    0.0000 C   0  0  0  0  0  0  0  0  0  0  0  0
   -5.6402    1.5256    0.0000 C   0  0  0  0  0  0  0  0  0  0  0  0
   -4.6621    1.7335    0.0000 C   0  0  2  0  0  0  0  0  0  0  0  0
   -3.6839    1.5256    0.0000 H   0  0  0  0  0  0  0  0  0  0  0  0
   -4.3530    0.7825    0.0000 C   0  0  0  0  0  0  0  0  0  0  0  0
   -5.0222    0.0393    0.0000 C   0  0  0  0  0  0  0  0  0  0  0  0
   -4.7132   -0.9117    0.0000 C   0  0  0  0  0  0  0  0  0  0  0  0
   -5.3823   -1.6549    0.0000 F   0  0  0  0  0  0  0  0  0  0  0  0
   -3.7350   -1.1196    0.0000 C   0  0  0  0  0  0  0  0  0  0  0  0
   -3.0659   -0.3765    0.0000 C   0  0  0  0  0  0  0  0  0  0  0  0
   -3.3749    0.5746    0.0000 C   0  0  0  0  0  0  0  0  0  0  0  0
   -2.7058    1.3177    0.0000 F   0  0  0  0  0  0  0  0  0  0  0  0
   -2.8255    2.7281    0.0000 N   0  0  0  0  0  0  0  0  0  0  0  0
   -1.9595    3.2281    0.0000 C   0  0  0  0  0  0  0  0  0  0  0  0
    0.5878    0.8090    0.0000 N   0  0  0  0  0  0  0  0  0  0  0  0
    1.5388    0.5000    0.0000 C   0  0  0  0  0  0  0  0  0  0  0  0
    1.5388   -0.5000    0.0000 C   0  0  0  0  0  0  0  0  0  0  0  0
    0.5878   -0.8090    0.0000 C   0  0  2  0  0  0  0  0  0  0  0  0
   -0.1554   -1.4781    0.0000 H   0  0  0  0  0  0  0  0  0  0  0  0
    0.7957   -1.7872    0.0000 O   0  0  0  0  0  0  0  0  0  0  0  0
    0.0000   -0.0000    0.0000 C   0  0  0  0  0  0  0  0  0  0  0  0
  1  2  2  0  0  0  0
  2  3  1  0  0  0  0
  2 27  1  0  0  0  0
  3  4  1  0  0  0  0
  4 26  2  0  0  0  0
  4  5  1  0  0  0  0
  5  6  2  0  0  0  0
  6  7  1  0  0  0  0
  7 26  1  0  0  0  0
  7  8  1  0  0  0  0
  8  9  2  0  0  0  0
  9 10  1  0  0  0  0
 10 11  1  0  0  0  0
 10 25  2  0  0  0  0
 11 15  1  0  0  0  0
 11 12  1  0  0  0  0
 12 13  1  0  0  0  0
 13 14  1  0  0  0  0
 14 15  1  0  0  0  0
 15 16  1  6  0  0  0
 15 17  1  0  0  0  0
 17 23  1  0  0  0  0
 17 18  2  0  0  0  0
 18 19  1  0  0  0  0
 19 20  1  0  0  0  0
 19 21  2  0  0  0  0
 21 22  1  0  0  0  0
 22 23  2  0  0  0  0
 23 24  1  0  0  0  0
 25 26  1  0  0  0  0
 27 33  1  0  0  0  0
 27 28  1  0  0  0  0
 28 29  1  0  0  0  0
 29 30  1  0  0  0  0
 30 31  1  1  0  0  0
 30 32  1  0  0  0  0
 30 33  1  0  0  0  0
M  END
$$$$

 OpenBabel10082008492D

 30 31  0  0  1  0  0  0  0  0999 V2000
   -3.4641   -4.0000    0.0000 C   0  0  0  0  0  0  0  0  0  0  0  0
   -2.5981   -4.5000    0.0000 O   0  0  0  0  0  0  0  0  0  0  0  0
   -1.7321   -4.0000    0.0000 C   0  0  0  0  0  0  0  0  0  0  0  0
   -1.7321   -3.0000    0.0000 C   0  0  0  0  0  0  0  0  0  0  0  0
   -0.8660   -2.5000    0.0000 O   0  0  0  0  0  0  0  0  0  0  0  0
   -0.8660   -1.5000    0.0000 C   0  0  0  0  0  0  0  0  0  0  0  0
   -0.0000   -1.0000    0.0000 O   0  0  0  0  0  0  0  0  0  0  0  0
   -1.7321   -1.0000    0.0000 C   0  0  0  0  0  0  0  0  0  0  0  0
   -2.5981   -1.5000    0.0000 C   0  0  0  0  0  0  0  0  0  0  0  0
   -2.5981   -2.5000    0.0000 C   0  0  0  0  0  0  0  0  0  0  0  0
   -3.4641   -1.0000    0.0000 N   0  0  0  0  0  0  0  0  0  0  0  0
   -3.4641    0.0000    0.0000 C   0  0  0  0  0  0  0  0  0  0  0  0
   -4.3301    0.5000    0.0000 C   0  0  0  0  0  0  0  0  0  0  0  0
   -2.5981    0.5000    0.0000 C   0  0  0  0  0  0  0  0  0  0  0  0
   -2.5981    1.5000    0.0000 C   0  0  0  0  0  0  0  0  0  0  0  0
   -1.7321    2.0000    0.0000 O   0  0  0  0  0  0  0  0  0  0  0  0
   -3.4641    2.0000    0.0000 O   0  0  0  0  0  0  0  0  0  0  0  0
   -3.4641    3.0000    0.0000 C   0  0  0  0  0  0  0  0  0  0  0  0
   -2.5981    3.5000    0.0000 C   0  0  0  0  0  0  0  0  0  0  0  0
   -4.3301    3.5000    0.0000 C   0  0  0  0  0  0  0  0  0  0  0  0
   -1.7321    0.0000    0.0000 C   0  0  3  0  0  0  0  0  0  0  0  0
   -0.8660    0.5000    0.0000 C   0  0  0  0  0  0  0  0  0  0  0  0
   -0.8660    1.5000    0.0000 C   0  0  0  0  0  0  0  0  0  0  0  0
    0.0000    2.0000    0.0000 C   0  0  0  0  0  0  0  0  0  0  0  0
    0.8660    1.5000    0.0000 C   0  0  0  0  0  0  0  0  0  0  0  0
    0.8660    0.5000    0.0000 C   0  0  0  0  0  0  0  0  0  0  0  0
    1.7321    0.0000    0.0000 N   0  3  0  0  0  0  0  0  0  0  0  0
    1.7321   -1.0000    0.0000 O   0  0  0  0  0  0  0  0  0  0  0  0
    2.5981    0.5000    0.0000 O   0  5  0  0  0  0  0  0  0  0  0  0
    0.0000   -0.0000    0.0000 C   0  0  0  0  0  0  0  0  0  0  0  0
  1  2  1  0  0  0  0
  2  3  1  0  0  0  0
  3  4  1  0  0  0  0
  4  5  1  0  0  0  0
  5  6  1  0  0  0  0
  6  7  2  0  0  0  0
  6  8  1  0  0  0  0
  8 21  1  0  0  0  0
  8  9  2  0  0  0  0
  9 10  1  0  0  0  0
  9 11  1  0  0  0  0
 11 12  1  0  0  0  0
 12 13  1  0  0  0  0
 12 14  2  0  0  0  0
 14 15  1  0  0  0  0
 14 21  1  0  0  0  0
 15 16  2  0  0  0  0
 15 17  1  0  0  0  0
 17 18  1  0  0  0  0
 18 19  1  0  0  0  0
 18 20  1  0  0  0  0
 21 22  1  0  0  0  0
 22 30  1  0  0  0  0
 22 23  2  0  0  0  0
 23 24  1  0  0  0  0
 24 25  2  0  0  0  0
 25 26  1  0  0  0  0
 26 27  1  0  0  0  0
 26 30  2  0  0  0  0
 27 28  2  0  0  0  0
 27 29  1  0  0  0  0
M  CHG  2  27   1  29  -1
M  END
$$$$

 OpenBabel10082008492D

 20 22  0  0  0  0  0  0  0  0999 V2000
    1.3625   -1.0056    0.0000 C   0  0  0  0  0  0  0  0  0  0  0  0
    0.3653   -0.9309    0.0000 N   0  0  0  0  0  0  0  0  0  0  0  0
   -0.1347   -1.7969    0.0000 C   0  0  0  0  0  0  0  0  0  0  0  0
    0.4287   -2.6231    0.0000 O   0  0  0  0  0  0  0  0  0  0  0  0
   -1.1235   -1.9459    0.0000 C   0  0  0  0  0  0  0  0  0  0  0  0
   -1.8565   -1.2658    0.0000 N   0  0  0  0  0  0  0  0  0  0  0  0
   -1.7818   -0.2686    0.0000 C   0  0  0  0  0  0  0  0  0  0  0  0
   -2.6478    0.2314    0.0000 C   0  0  0  0  0  0  0  0  0  0  0  0
   -3.5139   -0.2686    0.0000 C   0  0  0  0  0  0  0  0  0  0  0  0
   -4.3799    0.2314    0.0000 C   0  0  0  0  0  0  0  0  0  0  0  0
   -4.3799    1.2314    0.0000 C   0  0  0  0  0  0  0  0  0  0  0  0
   -3.5139    1.7314    0.0000 C   0  0  0  0  0  0  0  0  0  0  0  0
   -2.6478    1.2314    0.0000 C   0  0  0  0  0  0  0  0  0  0  0  0
   -0.9556    0.2948    0.0000 C   0  0  0  0  0  0  0  0  0  0  0  0
   -1.1781    1.2697    0.0000 C   0  0  0  0  0  0  0  0  0  0  0  0
   -0.4450    1.9499    0.0000 C   0  0  0  0  0  0  0  0  0  0  0  0
   -0.6676    2.9248    0.0000 Cl  0  0  0  0  0  0  0  0  0  0  0  0
    0.5105    1.6551    0.0000 C   0  0  0  0  0  0  0  0  0  0  0  0
    0.7331    0.6802    0.0000 C   0  0  0  0  0  0  0  0  0  0  0  0
    0.0000    0.0000    0.0000 C   0  0  0  0  0  0  0  0  0  0  0  0
  1  2  1  0  0  0  0
  2 20  1  0  0  0  0
  2  3  1  0  0  0  0
  3  4  2  0  0  0  0
  3  5  1  0  0  0  0
  5  6  1  0  0  0  0
  6  7  2  0  0  0  0
  7  8  1  0  0  0  0
  7 14  1  0  0  0  0
  8 13  1  0  0  0  0
  8  9  2  0  0  0  0
  9 10  1  0  0  0  0
 10 11  2  0  0  0  0
 11 12  1  0  0  0  0
 12 13  2  0  0  0  0
 14 20  1  0  0  0  0
 14 15  2  0  0  0  0
 15 16  1  0  0  0  0
 16 17  1  0  0  0  0
 16 18  2  0  0  0  0
 18 19  1  0  0  0  0
 19 20  2  0  0  0  0
M  END
$$$$

 OpenBabel10082008492D

 14 15  0  0  0  0  0  0  0  0999 V2000
   -0.9706   -0.5055    0.0000 Cl  0  0  0  0  0  0  0  0  0  0  0  0
   -1.8366   -0.0055    0.0000 C   0  0  0  0  0  0  0  0  0  0  0  0
   -2.7026   -0.5055    0.0000 C   0  0  0  0  0  0  0  0  0  0  0  0
   -3.5686   -0.0055    0.0000 C   0  0  0  0  0  0  0  0  0  0  0  0
   -3.5686    0.9945    0.0000 C   0  0  0  0  0  0  0  0  0  0  0  0
   -2.7026    1.4945    0.0000 C   0  0  0  0  0  0  0  0  0  0  0  0
   -2.7026    2.4945    0.0000 Cl  0  0  0  0  0  0  0  0  0  0  0  0
   -1.8366    0.9945    0.0000 C   0  0  0  0  0  0  0  0  0  0  0  0
   -0.9706    1.4945    0.0000 N   0  0  0  0  0  0  0  0  0  0  0  0
   -0.1045    0.9945    0.0000 C   0  0  0  0  0  0  0  0  0  0  0  0
    0.8090    1.4013    0.0000 N   0  0  0  0  0  0  0  0  0  0  0  0
    1.4781    0.6581    0.0000 C   0  0  0  0  0  0  0  0  0  0  0  0
    0.9781   -0.2079    0.0000 C   0  0  0  0  0  0  0  0  0  0  0  0
    0.0000   -0.0000    0.0000 N   0  0  0  0  0  0  0  0  0  0  0  0
  1  2  1  0  0  0  0
  2  8  1  0  0  0  0
  2  3  2  0  0  0  0
  3  4  1  0  0  0  0
  4  5  2  0  0  0  0
  5  6  1  0  0  0  0
  6  7  1  0  0  0  0
  6  8  2  0  0  0  0
  8  9  1  0  0  0  0
  9 10  2  0  0  0  0
 10 14  1  0  0  0  0
 10 11  1  0  0  0  0
 11 12  1  0  0  0  0
 12 13  1  0  0  0  0
 13 14  1  0  0  0  0
M  END
$$$$

 OpenBabel10082008492D

 29 32  0  0  0  0  0  0  0  0999 V2000
    3.4641   -3.0000    0.0000 C   0  0  0  0  0  0  0  0  0  0  0  0
    3.4641   -2.0000    0.0000 C   0  0  0  0  0  0  0  0  0  0  0  0
    4.3301   -1.5000    0.0000 O   0  0  0  0  0  0  0  0  0  0  0  0
    2.5981   -1.5000    0.0000 C   0  0  0  0  0  0  0  0  0  0  0  0
    1.7321   -2.0000    0.0000 C   0  0  0  0  0  0  0  0  0  0  0  0
    0.8660   -1.5000    0.0000 C   0  0  0  0  0  0  0  0  0  0  0  0
    0.8660   -0.5000    0.0000 C   0  0  0  0  0  0  0  0  0  0  0  0
    1.7321   -0.0000    0.0000 C   0  0  0  0  0  0  0  0  0  0  0  0
    2.5981   -0.5000    0.0000 C   0  0  0  0  0  0  0  0  0  0  0  0
    1.7321    1.0000    0.0000 N   0  0  0  0  0  0  0  0  0  0  0  0
    2.5981    1.5000    0.0000 C   0  0  0  0  0  0  0  0  0  0  0  0
    2.5981    2.5000    0.0000 C   0  0  0  0  0  0  0  0  0  0  0  0
    3.4641    3.0000    0.0000 C   0  0  0  0  0  0  0  0  0  0  0  0
    4.3301    2.5000    0.0000 N   0  0  0  0  0  0  0  0  0  0  0  0
    5.1962    3.0000    0.0000 C   0  0  0  0  0  0  0  0  0  0  0  0
    6.0622    2.5000    0.0000 C   0  0  0  0  0  0  0  0  0  0  0  0
    6.0622    1.5000    0.0000 N   0  0  0  0  0  0  0  0  0  0  0  0
    6.9282    1.0000    0.0000 C   0  0  0  0  0  0  0  0  0  0  0  0
    7.7942    1.5000    0.0000 C   0  0  0  0  0  0  0  0  0  0  0  0
    8.6603    1.0000    0.0000 O   0  0  0  0  0  0  0  0  0  0  0  0
    5.1962    1.0000    0.0000 C   0  0  0  0  0  0  0  0  0  0  0  0
    4.3301    1.5000    0.0000 C   0  0  0  0  0  0  0  0  0  0  0  0
    0.8660    1.5000    0.0000 C   0  0  0  0  0  0  0  0  0  0  0  0
    0.8660    2.5000    0.0000 C   0  0  0  0  0  0  0  0  0  0  0  0
    0.0000    3.0000    0.0000 C   0  0  0  0  0  0  0  0  0  0  0  0
   -0.8660    2.5000    0.0000 C   0  0  0  0  0  0  0  0  0  0  0  0
   -0.8660    1.5000    0.0000 C   0  0  0  0  0  0  0  0  0  0  0  0
    0.0000    1.0000    0.0000 C   0  0  0  0  0  0  0  0  0  0  0  0
    0.0000    0.0000    0.0000 S   0  0  0  0  0  0  0  0  0  0  0  0
  1  2  1  0  0  0  0
  2  3  2  0  0  0  0
  2  4  1  0  0  0  0
  4  9  1  0  0  0  0
  4  5  2  0  0  0  0
  5  6  1  0  0  0  0
  6  7  2  0  0  0  0
  7 29  1  0  0  0  0
  7  8  1  0  0  0  0
  8  9  2  0  0  0  0
  8 10  1  0  0  0  0
 10 11  1  0  0  0  0
 10 23  1  0  0  0  0
 11 12  1  0  0  0  0
 12 13  1  0  0  0  0
 13 14  1  0  0  0  0
 14 22  1  0  0  0  0
 14 15  1  0  0  0  0
 15 16  1  0  0  0  0
 16 17  1  0  0  0  0
 17 18  1  0  0  0  0
 17 21  1  0  0  0  0
 18 19  1  0  0  0  0
 19 20  1  0  0  0  0
 21 22  1  0  0  0  0
 23 28  1  0  0  0  0
 23 24  2  0  0  0  0
 24 25  1  0  0  0  0
 25 26  2  0  0  0  0
 26 27  1  0  0  0  0
 27 28  2  0  0  0  0
 28 29  1  0  0  0  0
M  END
$$$$

 OpenBabel10082008492D

 55 57  0  0  1  0  0  0  0  0999 V2000
    3.8301    7.5622    0.0000 C   0  0  0  0  0  0  0  0  0  0  0  0
    3.3301    6.6962    0.0000 O   0  0  0  0  0  0  0  0  0  0  0  0
    3.8301    5.8301    0.0000 C   0  0  0  0  0  0  0  0  0  0  0  0
    4.8301    5.8301    0.0000 O   0  0  0  0  0  0  0  0  0  0  0  0
    3.3301    4.9641    0.0000 N   0  0  0  0  0  0  0  0  0  0  0  0
    3.8301    4.0981    0.0000 C   0  0  2  0  0  0  0  0  0  0  0  0
    4.6962    4.5981    0.0000 H   0  0  0  0  0  0  0  0  0  0  0  0
    4.3301    3.2321    0.0000 C   0  0  0  0  0  0  0  0  0  0  0  0
    5.3301    3.2321    0.0000 O   0  0  0  0  0  0  0  0  0  0  0  0
    3.8301    2.3660    0.0000 N   0  0  0  0  0  0  0  0  0  0  0  0
    4.3301    1.5000    0.0000 C   0  0  1  0  0  0  0  0  0  0  0  0
    5.1962    2.0000    0.0000 H   0  0  0  0  0  0  0  0  0  0  0  0
    4.8301    0.6340    0.0000 C   0  0  0  0  0  0  0  0  0  0  0  0
    5.8301    0.6340    0.0000 C   0  0  0  0  0  0  0  0  0  0  0  0
    6.3301    1.5000    0.0000 C   0  0  0  0  0  0  0  0  0  0  0  0
    7.3301    1.5000    0.0000 C   0  0  0  0  0  0  0  0  0  0  0  0
    7.8301    0.6340    0.0000 C   0  0  0  0  0  0  0  0  0  0  0  0
    7.3301   -0.2321    0.0000 C   0  0  0  0  0  0  0  0  0  0  0  0
    6.3301   -0.2321    0.0000 C   0  0  0  0  0  0  0  0  0  0  0  0
    3.4641    1.0000    0.0000 C   0  0  1  0  0  0  0  0  0  0  0  0
    2.4641    1.0000    0.0000 H   0  0  0  0  0  0  0  0  0  0  0  0
    2.9641    1.8660    0.0000 O   0  0  0  0  0  0  0  0  0  0  0  0
    3.4641    0.0000    0.0000 C   0  0  0  0  0  0  0  0  0  0  0  0
    2.5981   -0.5000    0.0000 N   0  0  0  0  0  0  0  0  0  0  0  0
    1.7321   -0.0000    0.0000 C   0  0  0  0  0  0  0  0  0  0  0  0
    0.8660   -0.5000    0.0000 C   0  0  0  0  0  0  0  0  0  0  0  0
    0.8660   -1.5000    0.0000 C   0  0  0  0  0  0  0  0  0  0  0  0
    0.0000   -2.0000    0.0000 C   0  0  0  0  0  0  0  0  0  0  0  0
   -0.8660   -1.5000    0.0000 C   0  0  0  0  0  0  0  0  0  0  0  0
   -1.7321   -2.0000    0.0000 C   0  0  0  0  0  0  0  0  0  0  0  0
   -1.7321   -3.0000    0.0000 C   0  0  0  0  0  0  0  0  0  0  0  0
   -2.5981   -3.5000    0.0000 C   0  0  0  0  0  0  0  0  0  0  0  0
   -3.4641   -3.0000    0.0000 C   0  0  0  0  0  0  0  0  0  0  0  0
   -3.4641   -2.0000    0.0000 C   0  0  0  0  0  0  0  0  0  0  0  0
   -2.5981   -1.5000    0.0000 N   0  0  0  0  0  0  0  0  0  0  0  0
   -0.8660   -0.5000    0.0000 C   0  0  0  0  0  0  0  0  0  0  0  0
    0.0000   -0.0000    0.0000 C   0  0  0  0  0  0  0  0  0  0  0  0
    2.5981   -1.5000    0.0000 N   0  0  0  0  0  0  0  0  0  0  0  0
    3.4641   -2.0000    0.0000 C   0  0  0  0  0  0  0  0  0  0  0  0
    4.3301   -1.5000    0.0000 O   0  0  0  0  0  0  0  0  0  0  0  0
    3.4641   -3.0000    0.0000 C   0  0  1  0  0  0  0  0  0  0  0  0
    2.4641   -3.0000    0.0000 H   0  0  0  0  0  0  0  0  0  0  0  0
    3.4641   -4.0000    0.0000 N   0  0  0  0  0  0  0  0  0  0  0  0
    2.5981   -4.5000    0.0000 C   0  0  0  0  0  0  0  0  0  0  0  0
    2.5981   -5.5000    0.0000 O   0  0  0  0  0  0  0  0  0  0  0  0
    1.7321   -4.0000    0.0000 O   0  0  0  0  0  0  0  0  0  0  0  0
    0.8660   -4.5000    0.0000 C   0  0  0  0  0  0  0  0  0  0  0  0
    4.4641   -3.0000    0.0000 C   0  0  0  0  0  0  0  0  0  0  0  0
    5.3301   -2.5000    0.0000 C   0  0  0  0  0  0  0  0  0  0  0  0
    4.4641   -2.0000    0.0000 C   0  0  0  0  0  0  0  0  0  0  0  0
    4.9641   -3.8660    0.0000 C   0  0  0  0  0  0  0  0  0  0  0  0
    2.9641    3.5981    0.0000 C   0  0  0  0  0  0  0  0  0  0  0  0
    1.9641    3.5981    0.0000 C   0  0  0  0  0  0  0  0  0  0  0  0
    2.4641    4.4641    0.0000 C   0  0  0  0  0  0  0  0  0  0  0  0
    2.9641    2.5981    0.0000 C   0  0  0  0  0  0  0  0  0  0  0  0
  1  2  1  0  0  0  0
  2  3  1  0  0  0  0
  3  4  2  0  0  0  0
  3  5  1  0  0  0  0
  5  6  1  0  0  0  0
  6  7  1  1  0  0  0
  6  8  1  0  0  0  0
  6 52  1  0  0  0  0
  8  9  2  0  0  0  0
  8 10  1  0  0  0  0
 10 11  1  0  0  0  0
 11 12  1  6  0  0  0
 11 13  1  0  0  0  0
 11 20  1  0  0  0  0
 13 14  1  0  0  0  0
 14 19  1  0  0  0  0
 14 15  2  0  0  0  0
 15 16  1  0  0  0  0
 16 17  2  0  0  0  0
 17 18  1  0  0  0  0
 18 19  2  0  0  0  0
 20 21  1  1  0  0  0
 20 22  1  0  0  0  0
 20 23  1  0  0  0  0
 23 24  1  0  0  0  0
 24 25  1  0  0  0  0
 24 38  1  0  0  0  0
 25 26  1  0  0  0  0
 26 37  1  0  0  0  0
 26 27  2  0  0  0  0
 27 28  1  0  0  0  0
 28 29  2  0  0  0  0
 29 30  1  0  0  0  0
 29 36  1  0  0  0  0
 30 35  1  0  0  0  0
 30 31  2  0  0  0  0
 31 32  1  0  0  0  0
 32 33  2  0  0  0  0
 33 34  1  0  0  0  0
 34 35  2  0  0  0  0
 36 37  2  0  0  0  0
 38 39  1  0  0  0  0
 39 40  2  0  0  0  0
 39 41  1  0  0  0  0
 41 42  1  1  0  0  0
 41 43  1  0  0  0  0
 41 48  1  0  0  0  0
 43 44  1  0  0  0  0
 44 45  2  0  0  0  0
 44 46  1  0  0  0  0
 46 47  1  0  0  0  0
 48 49  1  0  0  0  0
 48 50  1  0  0  0  0
 48 51  1  0  0  0  0
 52 53  1  0  0  0  0
 52 54  1  0  0  0  0
 52 55  1  0  0  0  0
M  END
$$$$

 OpenBabel10082008492D

 27 29  0  0  1  0  0  0  0  0999 V2000
   -2.4935   -2.4945    0.0000 C   0  0  0  0  0  0  0  0  0  0  0  0
   -1.6275   -2.9945    0.0000 C   0  0  0  0  0  0  0  0  0  0  0  0
   -1.6275   -3.9945    0.0000 C   0  0  0  0  0  0  0  0  0  0  0  0
   -0.7615   -2.4945    0.0000 C   0  0  0  0  0  0  0  0  0  0  0  0
    0.1045   -2.9945    0.0000 O   0  0  0  0  0  0  0  0  0  0  0  0
    0.9706   -2.4945    0.0000 C   0  0  0  0  0  0  0  0  0  0  0  0
    0.9706   -1.4945    0.0000 C   0  0  3  0  0  0  0  0  0  0  0  0
    1.8366   -0.9945    0.0000 C   0  0  0  0  0  0  0  0  0  0  0  0
    2.7026   -1.4945    0.0000 N   0  0  0  0  0  0  0  0  0  0  0  0
    3.5686   -0.9945    0.0000 C   0  0  0  0  0  0  0  0  0  0  0  0
    4.4347   -1.4945    0.0000 C   0  0  0  0  0  0  0  0  0  0  0  0
    4.4347   -2.4945    0.0000 C   0  0  0  0  0  0  0  0  0  0  0  0
    5.3007   -2.9945    0.0000 C   0  0  0  0  0  0  0  0  0  0  0  0
    6.1667   -2.4945    0.0000 C   0  0  0  0  0  0  0  0  0  0  0  0
    6.1667   -1.4945    0.0000 C   0  0  0  0  0  0  0  0  0  0  0  0
    5.3007   -0.9945    0.0000 C   0  0  0  0  0  0  0  0  0  0  0  0
    2.7026   -2.4945    0.0000 C   0  0  0  0  0  0  0  0  0  0  0  0
    1.8366   -2.9945    0.0000 C   0  0  0  0  0  0  0  0  0  0  0  0
    1.8366   -3.9945    0.0000 C   0  0  0  0  0  0  0  0  0  0  0  0
    2.7026   -4.4945    0.0000 C   0  0  0  0  0  0  0  0  0  0  0  0
    3.5686   -3.9945    0.0000 C   0  0  0  0  0  0  0  0  0  0  0  0
    3.5686   -2.9945    0.0000 C   0  0  0  0  0  0  0  0  0  0  0  0
    0.1045   -0.9945    0.0000 N   0  0  0  0  0  0  0  0  0  0  0  0
   -0.8090   -1.4013    0.0000 C   0  0  0  0  0  0  0  0  0  0  0  0
   -1.4781   -0.6581    0.0000 C   0  0  0  0  0  0  0  0  0  0  0  0
   -0.9781    0.2079    0.0000 C   0  0  0  0  0  0  0  0  0  0  0  0
    0.0000    0.0000    0.0000 C   0  0  0  0  0  0  0  0  0  0  0  0
  1  2  1  0  0  0  0
  2  3  1  0  0  0  0
  2  4  1  0  0  0  0
  4  5  1  0  0  0  0
  5  6  1  0  0  0  0
  6  7  1  0  0  0  0
  7  8  1  0  0  0  0
  7 23  1  0  0  0  0
  8  9  1  0  0  0  0
  9 10  1  0  0  0  0
  9 17  1  0  0  0  0
 10 11  1  0  0  0  0
 11 16  1  0  0  0  0
 11 12  2  0  0  0  0
 12 13  1  0  0  0  0
 13 14  2  0  0  0  0
 14 15  1  0  0  0  0
 15 16  2  0  0  0  0
 17 22  1  0  0  0  0
 17 18  2  0  0  0  0
 18 19  1  0  0  0  0
 19 20  2  0  0  0  0
 20 21  1  0  0  0  0
 21 22  2  0  0  0  0
 23 27  1  0  0  0  0
 23 24  1  0  0  0  0
 24 25  1  0  0  0  0
 25 26  1  0  0  0  0
 26 27  1  0  0  0  0
M  END
$$$$

 OpenBabel10082008492D

 30 32  0  0  0  0  0  0  0  0999 V2000
   -0.0000   -2.0000    0.0000 C   0  0  0  0  0  0  0  0  0  0  0  0
   -0.8660   -1.5000    0.0000 C   0  0  0  0  0  0  0  0  0  0  0  0
   -1.8660   -1.5000    0.0000 C   0  0  0  0  0  0  0  0  0  0  0  0
   -1.3660   -2.3660    0.0000 C   0  0  0  0  0  0  0  0  0  0  0  0
   -0.8660   -0.5000    0.0000 C   0  0  0  0  0  0  0  0  0  0  0  0
   -1.7321   -0.0000    0.0000 C   0  0  0  0  0  0  0  0  0  0  0  0
   -1.7321    1.0000    0.0000 C   0  0  0  0  0  0  0  0  0  0  0  0
   -2.5981    1.5000    0.0000 C   0  0  0  0  0  0  0  0  0  0  0  0
   -3.5981    1.5000    0.0000 C   0  0  0  0  0  0  0  0  0  0  0  0
   -3.0981    0.6340    0.0000 C   0  0  0  0  0  0  0  0  0  0  0  0
   -2.5981    2.5000    0.0000 C   0  0  0  0  0  0  0  0  0  0  0  0
   -0.8660    1.5000    0.0000 C   0  0  0  0  0  0  0  0  0  0  0  0
   -0.8660    2.5000    0.0000 N   0  0  0  0  0  0  0  0  0  0  0  0
   -0.0000    3.0000    0.0000 C   0  0  0  0  0  0  0  0  0  0  0  0
   -0.0000    4.0000    0.0000 O   0  0  0  0  0  0  0  0  0  0  0  0
    0.8660    2.5000    0.0000 C   0  0  0  0  0  0  0  0  0  0  0  0
    0.8660    1.5000    0.0000 C   0  0  0  0  0  0  0  0  0  0  0  0
    1.7321    1.0000    0.0000 N   0  0  0  0  0  0  0  0  0  0  0  0
    1.7321   -0.0000    0.0000 H   0  0  0  0  0  0  0  0  0  0  0  0
    2.5981    1.5000    0.0000 C   0  0  0  0  0  0  0  0  0  0  0  0
    3.4641    1.0000    0.0000 C   0  0  0  0  0  0  0  0  0  0  0  0
    4.3301    1.5000    0.0000 C   0  0  0  0  0  0  0  0  0  0  0  0
    4.3301    2.5000    0.0000 C   0  0  0  0  0  0  0  0  0  0  0  0
    3.4641    3.0000    0.0000 C   0  0  0  0  0  0  0  0  0  0  0  0
    2.5981    2.5000    0.0000 C   0  0  0  0  0  0  0  0  0  0  0  0
    1.7321    3.0000    0.0000 C   0  0  0  0  0  0  0  0  0  0  0  0
    1.7321    4.0000    0.0000 O   0  0  0  0  0  0  0  0  0  0  0  0
   -0.0000    1.0000    0.0000 C   0  0  0  0  0  0  0  0  0  0  0  0
   -0.0000   -0.0000    0.0000 C   0  0  0  0  0  0  0  0  0  0  0  0
    0.8660   -0.5000    0.0000 O   0  0  0  0  0  0  0  0  0  0  0  0
  1  2  1  0  0  0  0
  2  3  1  0  0  0  0
  2  4  1  0  0  0  0
  2  5  1  0  0  0  0
  5 29  1  0  0  0  0
  5  6  2  0  0  0  0
  6  7  1  0  0  0  0
  7  8  1  0  0  0  0
  7 12  2  0  0  0  0
  8  9  1  0  0  0  0
  8 10  1  0  0  0  0
  8 11  1  0  0  0  0
 12 13  1  0  0  0  0
 12 28  1  0  0  0  0
 13 14  1  0  0  0  0
 14 15  2  0  0  0  0
 14 16  1  0  0  0  0
 16 26  1  0  0  0  0
 16 17  2  0  0  0  0
 17 18  1  0  0  0  0
 18 19  1  0  0  0  0
 18 20  1  0  0  0  0
 20 25  1  0  0  0  0
 20 21  2  0  0  0  0
 21 22  1  0  0  0  0
 22 23  2  0  0  0  0
 23 24  1  0  0  0  0
 24 25  2  0  0  0  0
 25 26  1  0  0  0  0
 26 27  2  0  0  0  0
 28 29  2  0  0  0  0
 29 30  1  0  0  0  0
M  END
$$$$

 OpenBabel10082008492D

 22 24  0  0  0  0  0  0  0  0999 V2000
   -0.0633    1.6923    0.0000 O   0  0  0  0  0  0  0  0  0  0  0  0
    0.5000    0.8660    0.0000 C   0  0  0  0  0  0  0  0  0  0  0  0
    1.4888    1.0151    0.0000 C   0  0  0  0  0  0  0  0  0  0  0  0
    2.2219    0.3349    0.0000 N   0  0  0  0  0  0  0  0  0  0  0  0
    2.1472   -0.6623    0.0000 C   0  0  0  0  0  0  0  0  0  0  0  0
    3.0132   -1.1623    0.0000 C   0  0  0  0  0  0  0  0  0  0  0  0
    3.8792   -0.6623    0.0000 C   0  0  0  0  0  0  0  0  0  0  0  0
    4.7452   -1.1623    0.0000 C   0  0  0  0  0  0  0  0  0  0  0  0
    4.7452   -2.1623    0.0000 C   0  0  0  0  0  0  0  0  0  0  0  0
    3.8792   -2.6623    0.0000 C   0  0  0  0  0  0  0  0  0  0  0  0
    3.0132   -2.1623    0.0000 C   0  0  0  0  0  0  0  0  0  0  0  0
    2.1472   -2.6623    0.0000 Cl  0  0  0  0  0  0  0  0  0  0  0  0
    1.3209   -1.2256    0.0000 C   0  0  0  0  0  0  0  0  0  0  0  0
    1.5434   -2.2006    0.0000 C   0  0  0  0  0  0  0  0  0  0  0  0
    0.8104   -2.8807    0.0000 C   0  0  0  0  0  0  0  0  0  0  0  0
    1.0329   -3.8557    0.0000 N   0  3  0  0  0  0  0  0  0  0  0  0
    0.2999   -4.5358    0.0000 O   0  0  0  0  0  0  0  0  0  0  0  0
    1.9885   -4.1504    0.0000 O   0  5  0  0  0  0  0  0  0  0  0  0
   -0.1452   -2.5860    0.0000 C   0  0  0  0  0  0  0  0  0  0  0  0
   -0.3677   -1.6110    0.0000 C   0  0  0  0  0  0  0  0  0  0  0  0
    0.3653   -0.9309    0.0000 C   0  0  0  0  0  0  0  0  0  0  0  0
    0.0000   -0.0000    0.0000 N   0  0  0  0  0  0  0  0  0  0  0  0
  1  2  2  0  0  0  0
  2 22  1  0  0  0  0
  2  3  1  0  0  0  0
  3  4  1  0  0  0  0
  4  5  2  0  0  0  0
  5  6  1  0  0  0  0
  5 13  1  0  0  0  0
  6 11  1  0  0  0  0
  6  7  2  0  0  0  0
  7  8  1  0  0  0  0
  8  9  2  0  0  0  0
  9 10  1  0  0  0  0
 10 11  2  0  0  0  0
 11 12  1  0  0  0  0
 13 21  1  0  0  0  0
 13 14  2  0  0  0  0
 14 15  1  0  0  0  0
 15 16  1  0  0  0  0
 15 19  2  0  0  0  0
 16 17  2  0  0  0  0
 16 18  1  0  0  0  0
 19 20  1  0  0  0  0
 20 21  2  0  0  0  0
 21 22  1  0  0  0  0
M  CHG  2  16   1  18  -1
M  END
$$$$

 OpenBabel10082008492D

 10  9  0  0  1  0  0  0  0  0999 V2000
    2.5981    1.5000    0.0000 C   0  0  0  0  0  0  0  0  0  0  0  0
    2.5981    2.5000    0.0000 C   0  0  3  0  0  0  0  0  0  0  0  0
    3.4641    3.0000    0.0000 S   0  0  0  0  0  0  0  0  0  0  0  0
    1.7321    3.0000    0.0000 C   0  0  0  0  0  0  0  0  0  0  0  0
    1.7321    4.0000    0.0000 O   0  0  0  0  0  0  0  0  0  0  0  0
    0.8660    2.5000    0.0000 N   0  0  0  0  0  0  0  0  0  0  0  0
    0.8660    1.5000    0.0000 C   0  0  0  0  0  0  0  0  0  0  0  0
   -0.0000    1.0000    0.0000 C   0  0  0  0  0  0  0  0  0  0  0  0
   -0.8660    1.5000    0.0000 O   0  0  0  0  0  0  0  0  0  0  0  0
    0.0000    0.0000    0.0000 O   0  0  0  0  0  0  0  0  0  0  0  0
  1  2  1  0  0  0  0
  2  3  1  0  0  0  0
  2  4  1  0  0  0  0
  4  5  2  0  0  0  0
  4  6  1  0  0  0  0
  6  7  1  0  0  0  0
  7  8  1  0  0  0  0
  8  9  2  0  0  0  0
  8 10  1  0  0  0  0
M  END
$$$$

 OpenBabel10082008492D

 31 34  0  0  1  0  0  0  0  0999 V2000
    3.4641   -0.0000    0.0000 C   0  0  0  0  0  0  0  0  0  0  0  0
    2.5981   -0.5000    0.0000 C   0  0  0  0  0  0  0  0  0  0  0  0
    1.7321   -0.0000    0.0000 C   0  0  0  0  0  0  0  0  0  0  0  0
    1.7321    1.0000    0.0000 C   0  0  0  0  0  0  0  0  0  0  0  0
    0.8660   -0.5000    0.0000 C   0  0  0  0  0  0  0  0  0  0  0  0
    0.8660   -1.5000    0.0000 C   0  0  0  0  0  0  0  0  0  0  0  0
    1.7321   -2.0000    0.0000 C   0  0  0  0  0  0  0  0  0  0  0  0
    1.7321   -3.0000    0.0000 C   0  0  0  0  0  0  0  0  0  0  0  0
    2.5981   -1.5000    0.0000 C   0  0  0  0  0  0  0  0  0  0  0  0
    3.4641   -2.0000    0.0000 O   0  0  0  0  0  0  0  0  0  0  0  0
   -0.0000   -2.0000    0.0000 C   0  0  0  0  0  0  0  0  0  0  0  0
   -0.8660   -1.5000    0.0000 C   0  0  0  0  0  0  0  0  0  0  0  0
   -0.8660   -0.5000    0.0000 C   0  0  3  0  0  0  0  0  0  0  0  0
   -0.7355    0.4914    0.0000 C   0  0  0  0  0  0  0  0  0  0  0  0
   -1.8320   -0.7588    0.0000 C   0  0  0  0  0  0  0  0  0  0  0  0
   -2.5391   -0.0517    0.0000 O   0  0  0  0  0  0  0  0  0  0  0  0
   -3.5050   -0.3105    0.0000 C   0  0  0  0  0  0  0  0  0  0  0  0
   -3.7638   -1.2765    0.0000 C   0  0  0  0  0  0  0  0  0  0  0  0
   -4.7297   -1.5353    0.0000 C   0  0  0  0  0  0  0  0  0  0  0  0
   -5.4368   -0.8282    0.0000 C   0  0  0  0  0  0  0  0  0  0  0  0
   -6.4028   -1.0870    0.0000 C   0  0  0  0  0  0  0  0  0  0  0  0
   -7.1099   -0.3799    0.0000 C   0  0  3  0  0  0  0  0  0  0  0  0
   -8.0976   -0.5363    0.0000 S   0  0  0  0  0  0  0  0  0  0  0  0
   -8.5515    0.3547    0.0000 C   0  0  0  0  0  0  0  0  0  0  0  0
   -9.5392    0.5111    0.0000 O   0  0  0  0  0  0  0  0  0  0  0  0
   -7.8444    1.0618    0.0000 N   0  0  0  0  0  0  0  0  0  0  0  0
   -6.9534    0.6078    0.0000 C   0  0  0  0  0  0  0  0  0  0  0  0
   -6.0624    1.0618    0.0000 O   0  0  0  0  0  0  0  0  0  0  0  0
   -5.1780    0.1378    0.0000 C   0  0  0  0  0  0  0  0  0  0  0  0
   -4.2121    0.3966    0.0000 C   0  0  0  0  0  0  0  0  0  0  0  0
    0.0000    0.0000    0.0000 O   0  0  0  0  0  0  0  0  0  0  0  0
  1  2  1  0  0  0  0
  2  9  1  0  0  0  0
  2  3  2  0  0  0  0
  3  4  1  0  0  0  0
  3  5  1  0  0  0  0
  5 31  1  0  0  0  0
  5  6  2  0  0  0  0
  6  7  1  0  0  0  0
  6 11  1  0  0  0  0
  7  8  1  0  0  0  0
  7  9  2  0  0  0  0
  9 10  1  0  0  0  0
 11 12  1  0  0  0  0
 12 13  1  0  0  0  0
 13 14  1  0  0  0  0
 13 15  1  0  0  0  0
 13 31  1  0  0  0  0
 15 16  1  0  0  0  0
 16 17  1  0  0  0  0
 17 30  1  0  0  0  0
 17 18  2  0  0  0  0
 18 19  1  0  0  0  0
 19 20  2  0  0  0  0
 20 21  1  0  0  0  0
 20 29  1  0  0  0  0
 21 22  1  0  0  0  0
 22 27  1  0  0  0  0
 22 23  1  0  0  0  0
 23 24  1  0  0  0  0
 24 25  2  0  0  0  0
 24 26  1  0  0  0  0
 26 27  1  0  0  0  0
 27 28  2  0  0  0  0
 29 30  2  0  0  0  0
M  END
$$$$

 OpenBabel10082008492D

 20 20  0  0  0  0  0  0  0  0999 V2000
   -4.3301   -4.5000    0.0000 C   0  0  0  0  0  0  0  0  0  0  0  0
   -3.4641   -5.0000    0.0000 C   0  0  0  0  0  0  0  0  0  0  0  0
   -2.5981   -4.5000    0.0000 N   0  0  0  0  0  0  0  0  0  0  0  0
   -1.7321   -5.0000    0.0000 C   0  0  0  0  0  0  0  0  0  0  0  0
   -0.8660   -4.5000    0.0000 C   0  0  0  0  0  0  0  0  0  0  0  0
   -2.5981   -3.5000    0.0000 C   0  0  0  0  0  0  0  0  0  0  0  0
   -1.7321   -3.0000    0.0000 C   0  0  0  0  0  0  0  0  0  0  0  0
   -1.7321   -2.0000    0.0000 N   0  0  0  0  0  0  0  0  0  0  0  0
   -0.8660   -1.5000    0.0000 C   0  0  0  0  0  0  0  0  0  0  0  0
    0.0000   -2.0000    0.0000 O   0  0  0  0  0  0  0  0  0  0  0  0
   -0.8660   -0.5000    0.0000 C   0  0  0  0  0  0  0  0  0  0  0  0
   -1.7321   -0.0000    0.0000 C   0  0  0  0  0  0  0  0  0  0  0  0
   -1.7321    1.0000    0.0000 C   0  0  0  0  0  0  0  0  0  0  0  0
   -2.5981    1.5000    0.0000 Cl  0  0  0  0  0  0  0  0  0  0  0  0
   -0.8660    1.5000    0.0000 C   0  0  0  0  0  0  0  0  0  0  0  0
   -0.8660    2.5000    0.0000 N   0  0  0  0  0  0  0  0  0  0  0  0
   -0.0000    1.0000    0.0000 C   0  0  0  0  0  0  0  0  0  0  0  0
    0.0000   -0.0000    0.0000 C   0  0  0  0  0  0  0  0  0  0  0  0
    0.8660   -0.5000    0.0000 O   0  0  0  0  0  0  0  0  0  0  0  0
    1.7321    0.0000    0.0000 C   0  0  0  0  0  0  0  0  0  0  0  0
  1  2  1  0  0  0  0
  2  3  1  0  0  0  0
  3  4  1  0  0  0  0
  3  6  1  0  0  0  0
  4  5  1  0  0  0  0
  6  7  1  0  0  0  0
  7  8  1  0  0  0  0
  8  9  1  0  0  0  0
  9 10  2  0  0  0  0
  9 11  1  0  0  0  0
 11 18  1  0  0  0  0
 11 12  2  0  0  0  0
 12 13  1  0  0  0  0
 13 14  1  0  0  0  0
 13 15  2  0  0  0  0
 15 16  1  0  0  0  0
 15 17  1  0  0  0  0
 17 18  2  0  0  0  0
 18 19  1  0  0  0  0
 19 20  1  0  0  0  0
M  END
$$$$

 OpenBabel10082008492D

 21 21  0  0  0  0  0  0  0  0999 V2000
    4.6190   -4.7871    0.0000 C   0  0  0  0  0  0  0  0  0  0  0  0
    5.0257   -3.8735    0.0000 N   0  0  0  0  0  0  0  0  0  0  0  0
    4.4379   -3.0645    0.0000 C   0  0  0  0  0  0  0  0  0  0  0  0
    4.8446   -2.1510    0.0000 C   0  0  0  0  0  0  0  0  0  0  0  0
    4.2569   -1.3420    0.0000 N   0  3  0  0  0  0  0  0  0  0  0  0
    4.6636   -0.4284    0.0000 O   0  0  0  0  0  0  0  0  0  0  0  0
    3.2623   -1.4465    0.0000 O   0  5  0  0  0  0  0  0  0  0  0  0
    3.4434   -3.1691    0.0000 N   0  0  0  0  0  0  0  0  0  0  0  0
    2.8556   -2.3600    0.0000 C   0  0  0  0  0  0  0  0  0  0  0  0
    1.8611   -2.4646    0.0000 C   0  0  0  0  0  0  0  0  0  0  0  0
    1.2733   -1.6555    0.0000 S   0  0  0  0  0  0  0  0  0  0  0  0
    0.2788   -1.7601    0.0000 C   0  0  0  0  0  0  0  0  0  0  0  0
   -0.3090   -0.9511    0.0000 C   0  0  0  0  0  0  0  0  0  0  0  0
   -1.3090   -0.9511    0.0000 C   0  0  0  0  0  0  0  0  0  0  0  0
   -1.6180    0.0000    0.0000 C   0  0  0  0  0  0  0  0  0  0  0  0
   -0.8090    0.5878    0.0000 C   0  0  0  0  0  0  0  0  0  0  0  0
   -0.8090    1.5878    0.0000 C   0  0  0  0  0  0  0  0  0  0  0  0
   -1.6750    2.0878    0.0000 N   0  0  0  0  0  0  0  0  0  0  0  0
   -1.6750    3.0878    0.0000 C   0  0  0  0  0  0  0  0  0  0  0  0
   -2.5411    1.5878    0.0000 C   0  0  0  0  0  0  0  0  0  0  0  0
    0.0000    0.0000    0.0000 O   0  0  0  0  0  0  0  0  0  0  0  0
  1  2  1  0  0  0  0
  2  3  1  0  0  0  0
  3  4  2  3  0  0  0
  3  8  1  0  0  0  0
  4  5  1  0  0  0  0
  5  6  2  0  0  0  0
  5  7  1  0  0  0  0
  8  9  1  0  0  0  0
  9 10  1  0  0  0  0
 10 11  1  0  0  0  0
 11 12  1  0  0  0  0
 12 13  1  0  0  0  0
 13 21  1  0  0  0  0
 13 14  2  0  0  0  0
 14 15  1  0  0  0  0
 15 16  2  0  0  0  0
 16 17  1  0  0  0  0
 16 21  1  0  0  0  0
 17 18  1  0  0  0  0
 18 19  1  0  0  0  0
 18 20  1  0  0  0  0
M  CHG  2   5   1   7  -1
M  END
$$$$

 OpenBabel10082008492D

 42 42  0  0  0  0  0  0  0  0999 V2000
    4.3301   -1.5000    0.0000 C   0  0  0  0  0  0  0  0  0  0  0  0
    4.3301   -0.5000    0.0000 C   0  0  0  0  0  0  0  0  0  0  0  0
    3.4641   -0.0000    0.0000 C   0  0  0  0  0  0  0  0  0  0  0  0
    2.5981   -0.5000    0.0000 C   0  0  0  0  0  0  0  0  0  0  0  0
    1.7321   -0.0000    0.0000 N   0  0  0  0  0  0  0  0  0  0  0  0
    0.8660   -0.5000    0.0000 C   0  0  0  0  0  0  0  0  0  0  0  0
    0.8660   -1.5000    0.0000 C   0  0  0  0  0  0  0  0  0  0  0  0
    0.0000   -2.0000    0.0000 C   0  0  0  0  0  0  0  0  0  0  0  0
   -0.8660   -1.5000    0.0000 C   0  0  0  0  0  0  0  0  0  0  0  0
   -1.7321   -2.0000    0.0000 C   0  0  0  0  0  0  0  0  0  0  0  0
   -2.5981   -1.5000    0.0000 O   0  0  0  0  0  0  0  0  0  0  0  0
   -1.7321   -3.0000    0.0000 O   0  0  0  0  0  0  0  0  0  0  0  0
   -2.5981   -3.5000    0.0000 C   0  0  0  0  0  0  0  0  0  0  0  0
   -3.4641   -3.0000    0.0000 C   0  0  0  0  0  0  0  0  0  0  0  0
   -4.3301   -3.5000    0.0000 O   0  0  0  0  0  0  0  0  0  0  0  0
   -5.1962   -3.0000    0.0000 C   0  0  0  0  0  0  0  0  0  0  0  0
   -6.0622   -3.5000    0.0000 C   0  0  0  0  0  0  0  0  0  0  0  0
   -6.9282   -3.0000    0.0000 O   0  0  0  0  0  0  0  0  0  0  0  0
   -7.7942   -3.5000    0.0000 C   0  0  0  0  0  0  0  0  0  0  0  0
   -8.6603   -3.0000    0.0000 C   0  0  0  0  0  0  0  0  0  0  0  0
   -9.5263   -3.5000    0.0000 O   0  0  0  0  0  0  0  0  0  0  0  0
  -10.3923   -3.0000    0.0000 C   0  0  0  0  0  0  0  0  0  0  0  0
  -11.2583   -3.5000    0.0000 C   0  0  0  0  0  0  0  0  0  0  0  0
  -12.1244   -3.0000    0.0000 O   0  0  0  0  0  0  0  0  0  0  0  0
  -12.9904   -3.5000    0.0000 C   0  0  0  0  0  0  0  0  0  0  0  0
  -13.8564   -3.0000    0.0000 C   0  0  0  0  0  0  0  0  0  0  0  0
  -14.7224   -3.5000    0.0000 O   0  0  0  0  0  0  0  0  0  0  0  0
  -15.5885   -3.0000    0.0000 C   0  0  0  0  0  0  0  0  0  0  0  0
  -16.4545   -3.5000    0.0000 C   0  0  0  0  0  0  0  0  0  0  0  0
  -17.3205   -3.0000    0.0000 O   0  0  0  0  0  0  0  0  0  0  0  0
  -18.1865   -3.5000    0.0000 C   0  0  0  0  0  0  0  0  0  0  0  0
  -19.0526   -3.0000    0.0000 C   0  0  0  0  0  0  0  0  0  0  0  0
  -19.9186   -3.5000    0.0000 O   0  0  0  0  0  0  0  0  0  0  0  0
  -20.7846   -3.0000    0.0000 C   0  0  0  0  0  0  0  0  0  0  0  0
  -21.6506   -3.5000    0.0000 C   0  0  0  0  0  0  0  0  0  0  0  0
  -22.5167   -3.0000    0.0000 O   0  0  0  0  0  0  0  0  0  0  0  0
  -23.3827   -3.5000    0.0000 C   0  0  0  0  0  0  0  0  0  0  0  0
  -24.2487   -3.0000    0.0000 C   0  0  0  0  0  0  0  0  0  0  0  0
  -25.1147   -3.5000    0.0000 O   0  0  0  0  0  0  0  0  0  0  0  0
  -25.9808   -3.0000    0.0000 C   0  0  0  0  0  0  0  0  0  0  0  0
   -0.8660   -0.5000    0.0000 C   0  0  0  0  0  0  0  0  0  0  0  0
    0.0000    0.0000    0.0000 C   0  0  0  0  0  0  0  0  0  0  0  0
  1  2  1  0  0  0  0
  2  3  1  0  0  0  0
  3  4  1  0  0  0  0
  4  5  1  0  0  0  0
  5  6  1  0  0  0  0
  6 42  1  0  0  0  0
  6  7  2  0  0  0  0
  7  8  1  0  0  0  0
  8  9  2  0  0  0  0
  9 10  1  0  0  0  0
  9 41  1  0  0  0  0
 10 11  2  0  0  0  0
 10 12  1  0  0  0  0
 12 13  1  0  0  0  0
 13 14  1  0  0  0  0
 14 15  1  0  0  0  0
 15 16  1  0  0  0  0
 16 17  1  0  0  0  0
 17 18  1  0  0  0  0
 18 19  1  0  0  0  0
 19 20  1  0  0  0  0
 20 21  1  0  0  0  0
 21 22  1  0  0  0  0
 22 23  1  0  0  0  0
 23 24  1  0  0  0  0
 24 25  1  0  0  0  0
 25 26  1  0  0  0  0
 26 27  1  0  0  0  0
 27 28  1  0  0  0  0
 28 29  1  0  0  0  0
 29 30  1  0  0  0  0
 30 31  1  0  0  0  0
 31 32  1  0  0  0  0
 32 33  1  0  0  0  0
 33 34  1  0  0  0  0
 34 35  1  0  0  0  0
 35 36  1  0  0  0  0
 36 37  1  0  0  0  0
 37 38  1  0  0  0  0
 38 39  1  0  0  0  0
 39 40  1  0  0  0  0
 41 42  2  0  0  0  0
M  END
$$$$

 OpenBabel10082008492D

 16 18  0  0  0  0  0  0  0  0999 V2000
    1.7321    2.0000    0.0000 C   0  0  0  0  0  0  0  0  0  0  0  0
    0.8660    1.5000    0.0000 O   0  0  0  0  0  0  0  0  0  0  0  0
    0.8660    0.5000    0.0000 C   0  0  0  0  0  0  0  0  0  0  0  0
    1.7321   -0.0000    0.0000 C   0  0  0  0  0  0  0  0  0  0  0  0
    2.6831    0.3090    0.0000 O   0  0  0  0  0  0  0  0  0  0  0  0
    3.2709   -0.5000    0.0000 C   0  0  0  0  0  0  0  0  0  0  0  0
    2.6831   -1.3090    0.0000 C   0  0  0  0  0  0  0  0  0  0  0  0
    1.7321   -1.0000    0.0000 C   0  0  0  0  0  0  0  0  0  0  0  0
    0.8660   -1.5000    0.0000 C   0  0  0  0  0  0  0  0  0  0  0  0
   -0.0000   -1.0000    0.0000 C   0  0  0  0  0  0  0  0  0  0  0  0
   -0.8660   -1.5000    0.0000 C   0  0  0  0  0  0  0  0  0  0  0  0
   -1.7321   -1.0000    0.0000 C   0  0  0  0  0  0  0  0  0  0  0  0
   -1.7321    0.0000    0.0000 C   0  0  0  0  0  0  0  0  0  0  0  0
   -2.5981    0.5000    0.0000 O   0  0  0  0  0  0  0  0  0  0  0  0
   -0.8660    0.5000    0.0000 O   0  0  0  0  0  0  0  0  0  0  0  0
    0.0000   -0.0000    0.0000 C   0  0  0  0  0  0  0  0  0  0  0  0
  1  2  1  0  0  0  0
  2  3  1  0  0  0  0
  3 16  1  0  0  0  0
  3  4  2  0  0  0  0
  4  8  1  0  0  0  0
  4  5  1  0  0  0  0
  5  6  1  0  0  0  0
  6  7  2  0  0  0  0
  7  8  1  0  0  0  0
  8  9  2  0  0  0  0
  9 10  1  0  0  0  0
 10 16  2  0  0  0  0
 10 11  1  0  0  0  0
 11 12  2  0  0  0  0
 12 13  1  0  0  0  0
 13 14  2  0  0  0  0
 13 15  1  0  0  0  0
 15 16  1  0  0  0  0
M  END
$$$$

 OpenBabel10082008492D

 16 17  0  0  0  0  0  0  0  0999 V2000
    1.8684    0.9364    0.0000 C   0  0  0  0  0  0  0  0  0  0  0  0
    0.9958    0.5749    0.0000 C   0  0  0  0  0  0  0  0  0  0  0  0
    0.8726   -0.3614    0.0000 C   0  0  0  0  0  0  0  0  0  0  0  0
    2.5084   -1.3059    0.0000 C   0  0  0  0  0  0  0  0  0  0  0  0
    3.3263   -0.8336    0.0000 C   0  0  0  0  0  0  0  0  0  0  0  0
    4.1442   -1.3059    0.0000 C   0  0  0  0  0  0  0  0  0  0  0  0
    4.1442   -2.2503    0.0000 C   0  0  0  0  0  0  0  0  0  0  0  0
    3.3263   -2.7225    0.0000 C   0  0  0  0  0  0  0  0  0  0  0  0
    2.5084   -2.2503    0.0000 C   0  0  0  0  0  0  0  0  0  0  0  0
    0.9958   -1.2978    0.0000 C   0  0  0  0  0  0  0  0  0  0  0  0
    1.8684   -1.6592    0.0000 O   0  0  0  0  0  0  0  0  0  0  0  0
    0.2465   -1.8727    0.0000 N   0  0  0  0  0  0  0  0  0  0  0  0
   -0.6260   -1.5113    0.0000 C   0  0  0  0  0  0  0  0  0  0  0  0
   -0.7493   -0.5749    0.0000 N   0  0  0  0  0  0  0  0  0  0  0  0
    0.0000   -0.0000    0.0000 C   0  0  0  0  0  0  0  0  0  0  0  0
   -0.1233    0.9364    0.0000 O   0  0  0  0  0  0  0  0  0  0  0  0
  1  2  1  0  0  0  0
  2  3  1  0  0  0  0
  3 15  1  0  0  0  0
  3  4  1  0  0  0  0
  3 10  1  0  0  0  0
  4  9  1  0  0  0  0
  4  5  2  0  0  0  0
  5  6  1  0  0  0  0
  6  7  2  0  0  0  0
  7  8  1  0  0  0  0
  8  9  2  0  0  0  0
 10 11  2  0  0  0  0
 10 12  1  0  0  0  0
 12 13  1  0  0  0  0
 13 14  1  0  0  0  0
 14 15  1  0  0  0  0
 15 16  2  0  0  0  0
M  END
$$$$

 OpenBabel10082008492D

 17 17  0  0  0  0  0  0  0  0999 V2000
   -4.3301   -4.5000    0.0000 C   0  0  0  0  0  0  0  0  0  0  0  0
   -3.4641   -5.0000    0.0000 C   0  0  0  0  0  0  0  0  0  0  0  0
   -2.5981   -4.5000    0.0000 N   0  0  0  0  0  0  0  0  0  0  0  0
   -1.7321   -5.0000    0.0000 C   0  0  0  0  0  0  0  0  0  0  0  0
   -0.8660   -4.5000    0.0000 C   0  0  0  0  0  0  0  0  0  0  0  0
   -2.5981   -3.5000    0.0000 C   0  0  0  0  0  0  0  0  0  0  0  0
   -1.7321   -3.0000    0.0000 C   0  0  0  0  0  0  0  0  0  0  0  0
   -1.7321   -2.0000    0.0000 N   0  0  0  0  0  0  0  0  0  0  0  0
   -0.8660   -1.5000    0.0000 C   0  0  0  0  0  0  0  0  0  0  0  0
   -0.0000   -2.0000    0.0000 O   0  0  0  0  0  0  0  0  0  0  0  0
   -0.8660   -0.5000    0.0000 C   0  0  0  0  0  0  0  0  0  0  0  0
   -1.7321   -0.0000    0.0000 C   0  0  0  0  0  0  0  0  0  0  0  0
   -1.7321    1.0000    0.0000 C   0  0  0  0  0  0  0  0  0  0  0  0
   -0.8660    1.5000    0.0000 C   0  0  0  0  0  0  0  0  0  0  0  0
   -0.8660    2.5000    0.0000 N   0  0  0  0  0  0  0  0  0  0  0  0
   -0.0000    1.0000    0.0000 C   0  0  0  0  0  0  0  0  0  0  0  0
    0.0000   -0.0000    0.0000 C   0  0  0  0  0  0  0  0  0  0  0  0
  1  2  1  0  0  0  0
  2  3  1  0  0  0  0
  3  4  1  0  0  0  0
  3  6  1  0  0  0  0
  4  5  1  0  0  0  0
  6  7  1  0  0  0  0
  7  8  1  0  0  0  0
  8  9  1  0  0  0  0
  9 10  2  0  0  0  0
  9 11  1  0  0  0  0
 11 17  1  0  0  0  0
 11 12  2  0  0  0  0
 12 13  1  0  0  0  0
 13 14  2  0  0  0  0
 14 15  1  0  0  0  0
 14 16  1  0  0  0  0
 16 17  2  0  0  0  0
M  END
$$$$

 OpenBabel10082008492D

 23 23  0  0  1  0  0  0  0  0999 V2000
    0.0306   -3.8461    0.0000 C   0  0  0  0  0  0  0  0  0  0  0  0
    0.2894   -2.8801    0.0000 C   0  0  3  0  0  0  0  0  0  0  0  0
    1.2553   -2.6213    0.0000 O   0  0  0  0  0  0  0  0  0  0  0  0
    1.5141   -1.6554    0.0000 C   0  0  0  0  0  0  0  0  0  0  0  0
    2.4800   -1.3966    0.0000 O   0  0  0  0  0  0  0  0  0  0  0  0
    0.8070   -0.9483    0.0000 N   0  0  0  0  0  0  0  0  0  0  0  0
   -0.1589   -1.2071    0.0000 C   0  0  0  0  0  0  0  0  0  0  0  0
   -0.8660   -0.5000    0.0000 C   0  0  0  0  0  0  0  0  0  0  0  0
   -1.7899   -0.8827    0.0000 C   0  0  0  0  0  0  0  0  0  0  0  0
   -2.5833   -0.2739    0.0000 C   0  0  0  0  0  0  0  0  0  0  0  0
   -2.4527    0.7175    0.0000 O   0  0  0  0  0  0  0  0  0  0  0  0
   -3.5071   -0.6566    0.0000 O   0  0  0  0  0  0  0  0  0  0  0  0
   -1.7321   -0.0000    0.0000 C   0  0  0  0  0  0  0  0  0  0  0  0
   -1.7321    1.0000    0.0000 C   0  0  0  0  0  0  0  0  0  0  0  0
   -0.8660    1.5000    0.0000 C   0  0  0  0  0  0  0  0  0  0  0  0
   -0.0000    1.0000    0.0000 C   0  0  0  0  0  0  0  0  0  0  0  0
    0.0000    0.0000    0.0000 C   0  0  0  0  0  0  0  0  0  0  0  0
   -0.4177   -2.1730    0.0000 O   0  0  0  0  0  0  0  0  0  0  0  0
   -1.3837   -2.4319    0.0000 C   0  0  0  0  0  0  0  0  0  0  0  0
   -2.0908   -1.7247    0.0000 O   0  0  0  0  0  0  0  0  0  0  0  0
   -1.6425   -3.3978    0.0000 C   0  0  0  0  0  0  0  0  0  0  0  0
   -2.6084   -3.6566    0.0000 C   0  0  0  0  0  0  0  0  0  0  0  0
   -0.9354   -4.1049    0.0000 C   0  0  0  0  0  0  0  0  0  0  0  0
  1  2  1  0  0  0  0
  2  3  1  0  0  0  0
  2 18  1  0  0  0  0
  3  4  1  0  0  0  0
  4  5  2  0  0  0  0
  4  6  1  0  0  0  0
  6  7  1  0  0  0  0
  7  8  1  0  0  0  0
  8 17  1  0  0  0  0
  8  9  1  0  0  0  0
  8 13  1  0  0  0  0
  9 10  1  0  0  0  0
 10 11  2  0  0  0  0
 10 12  1  0  0  0  0
 13 14  1  0  0  0  0
 14 15  1  0  0  0  0
 15 16  1  0  0  0  0
 16 17  1  0  0  0  0
 18 19  1  0  0  0  0
 19 20  2  0  0  0  0
 19 21  1  0  0  0  0
 21 22  1  0  0  0  0
 21 23  1  0  0  0  0
M  END
$$$$

 OpenBabel10082008492D

 42 45  0  0  1  0  0  0  0  0999 V2000
    1.8660    1.5000    0.0000 C   0  0  0  0  0  0  0  0  0  0  0  0
    0.8660    1.5000    0.0000 C   0  0  1  0  0  0  0  0  0  0  0  0
    1.3660    2.3660    0.0000 H   0  0  0  0  0  0  0  0  0  0  0  0
    0.0000    2.0000    0.0000 O   0  0  0  0  0  0  0  0  0  0  0  0
   -0.8660    1.5000    0.0000 C   0  0  1  0  0  0  0  0  0  0  0  0
   -0.8660    2.5000    0.0000 H   0  0  0  0  0  0  0  0  0  0  0  0
   -0.3660    0.6340    0.0000 O   0  0  0  0  0  0  0  0  0  0  0  0
   -0.8660   -0.2321    0.0000 C   0  0  0  0  0  0  0  0  0  0  0  0
   -1.8660   -0.2321    0.0000 C   0  0  0  0  0  0  0  0  0  0  0  0
   -2.3660    0.6340    0.0000 N   0  0  0  0  0  0  0  0  0  0  0  0
   -3.3660    0.6340    0.0000 C   0  0  0  0  0  0  0  0  0  0  0  0
   -3.8660   -0.2321    0.0000 C   0  0  0  0  0  0  0  0  0  0  0  0
   -3.4593   -1.1456    0.0000 N   0  0  0  0  0  0  0  0  0  0  0  0
   -4.2024   -1.8147    0.0000 N   0  0  0  0  0  0  0  0  0  0  0  0
   -4.0979   -2.8092    0.0000 H   0  0  0  0  0  0  0  0  0  0  0  0
   -5.0685   -1.3147    0.0000 C   0  0  0  0  0  0  0  0  0  0  0  0
   -5.9820   -1.7215    0.0000 O   0  0  0  0  0  0  0  0  0  0  0  0
   -4.8605   -0.3366    0.0000 N   0  0  0  0  0  0  0  0  0  0  0  0
   -5.5297    0.4066    0.0000 H   0  0  0  0  0  0  0  0  0  0  0  0
   -1.8660    1.5000    0.0000 C   0  0  1  0  0  0  0  0  0  0  0  0
   -1.8660    2.5000    0.0000 H   0  0  0  0  0  0  0  0  0  0  0  0
   -2.7321    2.0000    0.0000 C   0  0  0  0  0  0  0  0  0  0  0  0
   -3.5981    1.5000    0.0000 C   0  0  0  0  0  0  0  0  0  0  0  0
   -4.4641    2.0000    0.0000 C   0  0  0  0  0  0  0  0  0  0  0  0
   -4.4641    3.0000    0.0000 C   0  0  0  0  0  0  0  0  0  0  0  0
   -5.3301    3.5000    0.0000 F   0  0  0  0  0  0  0  0  0  0  0  0
   -3.5981    3.5000    0.0000 C   0  0  0  0  0  0  0  0  0  0  0  0
   -2.7321    3.0000    0.0000 C   0  0  0  0  0  0  0  0  0  0  0  0
    0.8660    0.5000    0.0000 C   0  0  0  0  0  0  0  0  0  0  0  0
    1.7321   -0.0000    0.0000 C   0  0  0  0  0  0  0  0  0  0  0  0
    1.7321   -1.0000    0.0000 C   0  0  0  0  0  0  0  0  0  0  0  0
    2.5981   -1.5000    0.0000 C   0  0  0  0  0  0  0  0  0  0  0  0
    3.5981   -1.5000    0.0000 F   0  0  0  0  0  0  0  0  0  0  0  0
    3.0981   -0.6340    0.0000 F   0  0  0  0  0  0  0  0  0  0  0  0
    2.5981   -2.5000    0.0000 F   0  0  0  0  0  0  0  0  0  0  0  0
    0.8660   -1.5000    0.0000 C   0  0  0  0  0  0  0  0  0  0  0  0
   -0.0000   -1.0000    0.0000 C   0  0  0  0  0  0  0  0  0  0  0  0
   -0.8660   -1.5000    0.0000 C   0  0  0  0  0  0  0  0  0  0  0  0
   -1.3660   -2.3660    0.0000 F   0  0  0  0  0  0  0  0  0  0  0  0
   -0.3660   -2.3660    0.0000 F   0  0  0  0  0  0  0  0  0  0  0  0
   -1.7321   -1.0000    0.0000 F   0  0  0  0  0  0  0  0  0  0  0  0
   -0.0000   -0.0000    0.0000 C   0  0  0  0  0  0  0  0  0  0  0  0
  1  2  1  0  0  0  0
  2  3  1  1  0  0  0
  2  4  1  0  0  0  0
  2 29  1  0  0  0  0
  4  5  1  0  0  0  0
  5  6  1  6  0  0  0
  5 20  1  0  0  0  0
  5  7  1  0  0  0  0
  7  8  1  0  0  0  0
  8  9  1  0  0  0  0
  9 10  1  0  0  0  0
 10 11  1  0  0  0  0
 10 20  1  0  0  0  0
 11 12  1  0  0  0  0
 12 18  1  0  0  0  0
 12 13  2  0  0  0  0
 13 14  1  0  0  0  0
 14 15  1  0  0  0  0
 14 16  1  0  0  0  0
 16 17  2  0  0  0  0
 16 18  1  0  0  0  0
 18 19  1  0  0  0  0
 20 21  1  6  0  0  0
 20 22  1  0  0  0  0
 22 28  1  0  0  0  0
 22 23  2  0  0  0  0
 23 24  1  0  0  0  0
 24 25  2  0  0  0  0
 25 26  1  0  0  0  0
 25 27  1  0  0  0  0
 27 28  2  0  0  0  0
 29 42  1  0  0  0  0
 29 30  2  0  0  0  0
 30 31  1  0  0  0  0
 31 32  1  0  0  0  0
 31 36  2  0  0  0  0
 32 33  1  0  0  0  0
 32 34  1  0  0  0  0
 32 35  1  0  0  0  0
 36 37  1  0  0  0  0
 37 38  1  0  0  0  0
 37 42  2  0  0  0  0
 38 39  1  0  0  0  0
 38 40  1  0  0  0  0
 38 41  1  0  0  0  0
M  END
$$$$

 OpenBabel10082008492D

 14 14  0  0  1  0  0  0  0  0999 V2000
    2.5981   -0.5000    0.0000 C   0  0  0  0  0  0  0  0  0  0  0  0
    1.7321   -0.0000    0.0000 O   0  0  0  0  0  0  0  0  0  0  0  0
    0.8660   -0.5000    0.0000 C   0  0  0  0  0  0  0  0  0  0  0  0
    0.8660   -1.5000    0.0000 C   0  0  0  0  0  0  0  0  0  0  0  0
    0.0000   -2.0000    0.0000 C   0  0  0  0  0  0  0  0  0  0  0  0
   -0.8660   -1.5000    0.0000 C   0  0  0  0  0  0  0  0  0  0  0  0
   -0.8660   -0.5000    0.0000 C   0  0  0  0  0  0  0  0  0  0  0  0
   -0.0000   -0.0000    0.0000 C   0  0  0  0  0  0  0  0  0  0  0  0
   -0.0000    1.0000    0.0000 O   0  0  0  0  0  0  0  0  0  0  0  0
   -0.8660    1.5000    0.0000 C   0  0  0  0  0  0  0  0  0  0  0  0
   -0.8660    2.5000    0.0000 C   0  0  3  0  0  0  0  0  0  0  0  0
   -0.0000    3.0000    0.0000 O   0  0  0  0  0  0  0  0  0  0  0  0
   -1.7321    3.0000    0.0000 C   0  0  0  0  0  0  0  0  0  0  0  0
   -1.7321    4.0000    0.0000 O   0  0  0  0  0  0  0  0  0  0  0  0
  1  2  1  0  0  0  0
  2  3  1  0  0  0  0
  3  8  1  0  0  0  0
  3  4  2  0  0  0  0
  4  5  1  0  0  0  0
  5  6  2  0  0  0  0
  6  7  1  0  0  0  0
  7  8  2  0  0  0  0
  8  9  1  0  0  0  0
  9 10  1  0  0  0  0
 10 11  1  0  0  0  0
 11 12  1  0  0  0  0
 11 13  1  0  0  0  0
 13 14  1  0  0  0  0
M  END
$$$$

 OpenBabel10082008492D

 39 42  0  0  0  0  0  0  0  0999 V2000
   -1.5981    4.5000    0.0000 C   0  0  0  0  0  0  0  0  0  0  0  0
   -0.7321    4.0000    0.0000 O   0  0  0  0  0  0  0  0  0  0  0  0
    0.1340    4.5000    0.0000 C   0  0  0  0  0  0  0  0  0  0  0  0
    0.1340    5.5000    0.0000 C   0  0  0  0  0  0  0  0  0  0  0  0
    1.0000    6.0000    0.0000 C   0  0  0  0  0  0  0  0  0  0  0  0
    1.8660    5.5000    0.0000 C   0  0  0  0  0  0  0  0  0  0  0  0
    1.8660    4.5000    0.0000 C   0  0  0  0  0  0  0  0  0  0  0  0
    1.0000    4.0000    0.0000 C   0  0  0  0  0  0  0  0  0  0  0  0
    1.0000    3.0000    0.0000 O   0  0  0  0  0  0  0  0  0  0  0  0
    1.8660    2.5000    0.0000 C   0  0  0  0  0  0  0  0  0  0  0  0
    1.8660    1.5000    0.0000 C   0  0  0  0  0  0  0  0  0  0  0  0
    1.0000    1.0000    0.0000 N   0  0  0  0  0  0  0  0  0  0  0  0
    1.0000    0.0000    0.0000 S   0  0  0  0  0  0  0  0  0  0  0  0
    2.0000    0.0000    0.0000 O   0  0  0  0  0  0  0  0  0  0  0  0
    1.0000   -1.0000    0.0000 O   0  0  0  0  0  0  0  0  0  0  0  0
    0.0000   -0.0000    0.0000 C   0  0  0  0  0  0  0  0  0  0  0  0
   -0.5000    0.8660    0.0000 C   0  0  0  0  0  0  0  0  0  0  0  0
   -1.5000    0.8660    0.0000 C   0  0  0  0  0  0  0  0  0  0  0  0
   -2.0000    0.0000    0.0000 C   0  0  0  0  0  0  0  0  0  0  0  0
   -3.0000   -0.0000    0.0000 C   0  0  0  0  0  0  0  0  0  0  0  0
   -3.8660    0.5000    0.0000 C   0  0  0  0  0  0  0  0  0  0  0  0
   -3.0000    1.0000    0.0000 C   0  0  0  0  0  0  0  0  0  0  0  0
   -3.5000   -0.8660    0.0000 C   0  0  0  0  0  0  0  0  0  0  0  0
   -1.5000   -0.8660    0.0000 C   0  0  0  0  0  0  0  0  0  0  0  0
   -0.5000   -0.8660    0.0000 C   0  0  0  0  0  0  0  0  0  0  0  0
    2.7321    1.0000    0.0000 N   0  0  0  0  0  0  0  0  0  0  0  0
    3.5981    1.5000    0.0000 C   0  0  0  0  0  0  0  0  0  0  0  0
    4.4641    1.0000    0.0000 C   0  0  0  0  0  0  0  0  0  0  0  0
    4.4641    0.0000    0.0000 N   0  0  0  0  0  0  0  0  0  0  0  0
    5.3301   -0.5000    0.0000 C   0  0  0  0  0  0  0  0  0  0  0  0
    6.1962    0.0000    0.0000 C   0  0  0  0  0  0  0  0  0  0  0  0
    6.1962    1.0000    0.0000 C   0  0  0  0  0  0  0  0  0  0  0  0
    5.3301    1.5000    0.0000 N   0  0  0  0  0  0  0  0  0  0  0  0
    3.5981    2.5000    0.0000 N   0  0  0  0  0  0  0  0  0  0  0  0
    2.7321    3.0000    0.0000 C   0  0  0  0  0  0  0  0  0  0  0  0
    2.7321    4.0000    0.0000 O   0  0  0  0  0  0  0  0  0  0  0  0
    3.5981    4.5000    0.0000 C   0  0  0  0  0  0  0  0  0  0  0  0
    3.5981    5.5000    0.0000 C   0  0  0  0  0  0  0  0  0  0  0  0
    4.4641    6.0000    0.0000 O   0  0  0  0  0  0  0  0  0  0  0  0
  1  2  1  0  0  0  0
  2  3  1  0  0  0  0
  3  8  1  0  0  0  0
  3  4  2  0  0  0  0
  4  5  1  0  0  0  0
  5  6  2  0  0  0  0
  6  7  1  0  0  0  0
  7  8  2  0  0  0  0
  8  9  1  0  0  0  0
  9 10  1  0  0  0  0
 10 35  1  0  0  0  0
 10 11  2  0  0  0  0
 11 12  1  0  0  0  0
 11 26  1  0  0  0  0
 12 13  1  0  0  0  0
 13 14  2  0  0  0  0
 13 15  2  0  0  0  0
 13 16  1  0  0  0  0
 16 25  1  0  0  0  0
 16 17  2  0  0  0  0
 17 18  1  0  0  0  0
 18 19  2  0  0  0  0
 19 20  1  0  0  0  0
 19 24  1  0  0  0  0
 20 21  1  0  0  0  0
 20 22  1  0  0  0  0
 20 23  1  0  0  0  0
 24 25  2  0  0  0  0
 26 27  2  0  0  0  0
 27 28  1  0  0  0  0
 27 34  1  0  0  0  0
 28 33  1  0  0  0  0
 28 29  2  0  0  0  0
 29 30  1  0  0  0  0
 30 31  2  0  0  0  0
 31 32  1  0  0  0  0
 32 33  2  0  0  0  0
 34 35  2  0  0  0  0
 35 36  1  0  0  0  0
 36 37  1  0  0  0  0
 37 38  1  0  0  0  0
 38 39  1  0  0  0  0
M  END
$$$$

 OpenBabel10082008492D

 22 25  0  0  0  0  0  0  0  0999 V2000
   -0.8660   -1.5000    0.0000 C   0  0  0  0  0  0  0  0  0  0  0  0
   -0.8660   -0.5000    0.0000 N   0  0  0  0  0  0  0  0  0  0  0  0
   -1.7321   -0.0000    0.0000 C   0  0  0  0  0  0  0  0  0  0  0  0
   -1.7321    1.0000    0.0000 C   0  0  0  0  0  0  0  0  0  0  0  0
   -0.8660    1.5000    0.0000 C   0  0  0  0  0  0  0  0  0  0  0  0
   -0.8660    2.5000    0.0000 C   0  0  0  0  0  0  0  0  0  0  0  0
   -1.7670    2.9339    0.0000 C   0  0  0  0  0  0  0  0  0  0  0  0
   -2.5000    2.2537    0.0000 C   0  0  0  0  0  0  0  0  0  0  0  0
   -3.4556    2.5485    0.0000 C   0  0  0  0  0  0  0  0  0  0  0  0
   -3.6781    3.5234    0.0000 C   0  0  0  0  0  0  0  0  0  0  0  0
   -2.9451    4.2036    0.0000 C   0  0  0  0  0  0  0  0  0  0  0  0
   -1.9895    3.9088    0.0000 C   0  0  0  0  0  0  0  0  0  0  0  0
   -1.3660    4.6906    0.0000 C   0  0  0  0  0  0  0  0  0  0  0  0
   -0.3660    4.6906    0.0000 C   0  0  0  0  0  0  0  0  0  0  0  0
    0.2575    3.9088    0.0000 C   0  0  0  0  0  0  0  0  0  0  0  0
    1.2130    4.2036    0.0000 C   0  0  0  0  0  0  0  0  0  0  0  0
    1.9461    3.5234    0.0000 C   0  0  0  0  0  0  0  0  0  0  0  0
    1.7236    2.5485    0.0000 C   0  0  0  0  0  0  0  0  0  0  0  0
    0.7680    2.2537    0.0000 N   0  0  0  0  0  0  0  0  0  0  0  0
    0.0349    2.9339    0.0000 C   0  0  0  0  0  0  0  0  0  0  0  0
   -0.0000    1.0000    0.0000 C   0  0  0  0  0  0  0  0  0  0  0  0
    0.0000    0.0000    0.0000 C   0  0  0  0  0  0  0  0  0  0  0  0
  1  2  1  0  0  0  0
  2 22  1  0  0  0  0
  2  3  1  0  0  0  0
  3  4  1  0  0  0  0
  4  5  1  0  0  0  0
  5  6  2  0  0  0  0
  5 21  1  0  0  0  0
  6 20  1  0  0  0  0
  6  7  1  0  0  0  0
  7 12  1  0  0  0  0
  7  8  2  0  0  0  0
  8  9  1  0  0  0  0
  9 10  2  0  0  0  0
 10 11  1  0  0  0  0
 11 12  2  0  0  0  0
 12 13  1  0  0  0  0
 13 14  1  0  0  0  0
 14 15  1  0  0  0  0
 15 20  1  0  0  0  0
 15 16  2  0  0  0  0
 16 17  1  0  0  0  0
 17 18  2  0  0  0  0
 18 19  1  0  0  0  0
 19 20  2  0  0  0  0
 21 22  1  0  0  0  0
M  END
$$$$

 OpenBabel10082008492D

 90 99  0  0  1  0  0  0  0  0999 V2000
   -4.3872    4.9668    0.0000 C   0  0  0  0  0  0  0  0  0  0  0  0
   -4.7384    4.0517    0.0000 O   0  0  0  0  0  0  0  0  0  0  0  0
   -4.1216    3.2899    0.0000 C   0  0  0  0  0  0  0  0  0  0  0  0
   -4.4729    2.3748    0.0000 O   0  0  0  0  0  0  0  0  0  0  0  0
   -3.1535    3.4433    0.0000 N   0  0  0  0  0  0  0  0  0  0  0  0
   -2.5366    2.6815    0.0000 C   0  0  2  0  0  0  0  0  0  0  0  0
   -3.2984    2.0646    0.0000 H   0  0  0  0  0  0  0  0  0  0  0  0
   -1.9197    1.9197    0.0000 C   0  0  0  0  0  0  0  0  0  0  0  0
   -0.9516    2.0731    0.0000 O   0  0  0  0  0  0  0  0  0  0  0  0
   -2.2710    1.0046    0.0000 N   0  0  0  0  0  0  0  0  0  0  0  0
   -3.2178    0.7510    0.0000 C   0  0  0  0  0  0  0  0  0  0  0  0
   -3.2691   -0.2279    0.0000 C   0  0  0  0  0  0  0  0  0  0  0  0
   -2.3540   -0.5792    0.0000 C   0  0  0  0  0  0  0  0  0  0  0  0
   -1.7372    0.1826    0.0000 C   0  0  1  0  0  0  0  0  0  0  0  0
   -0.8638    0.6276    0.0000 H   0  0  0  0  0  0  0  0  0  0  0  0
   -0.9151   -0.3513    0.0000 C   0  0  0  0  0  0  0  0  0  0  0  0
   -0.8638   -1.3301    0.0000 N   0  0  0  0  0  0  0  0  0  0  0  0
    0.0830   -1.5838    0.0000 C   0  0  0  0  0  0  0  0  0  0  0  0
    0.5280   -2.4572    0.0000 C   0  0  0  0  0  0  0  0  0  0  0  0
    1.5069   -2.5085    0.0000 C   0  0  0  0  0  0  0  0  0  0  0  0
    1.9519   -3.3818    0.0000 C   0  0  1  0  0  0  0  0  0  0  0  0
    1.1845   -3.9917    0.0000 H   0  0  0  0  0  0  0  0  0  0  0  0
    2.2548   -4.3141    0.0000 C   0  0  0  0  0  0  0  0  0  0  0  0
    3.2350   -4.3141    0.0000 C   0  0  0  0  0  0  0  0  0  0  0  0
    3.5379   -3.3818    0.0000 C   0  0  2  0  0  0  0  0  0  0  0  0
    4.1937   -2.6534    0.0000 H   0  0  0  0  0  0  0  0  0  0  0  0
    4.4966   -3.5856    0.0000 C   0  0  0  0  0  0  0  0  0  0  0  0
    5.1525   -2.8572    0.0000 C   0  0  0  0  0  0  0  0  0  0  0  0
    6.1113   -3.0610    0.0000 C   0  0  0  0  0  0  0  0  0  0  0  0
    6.9043   -2.4849    0.0000 N   0  0  0  0  0  0  0  0  0  0  0  0
    7.6973   -3.0610    0.0000 C   0  0  0  0  0  0  0  0  0  0  0  0
    9.5617   -2.4552    0.0000 C   0  0  2  0  0  0  0  0  0  0  0  0
   10.0440   -3.3085    0.0000 H   0  0  0  0  0  0  0  0  0  0  0  0
   10.5299   -2.3019    0.0000 C   0  0  0  0  0  0  0  0  0  0  0  0
   10.6832   -1.3337    0.0000 C   0  0  0  0  0  0  0  0  0  0  0  0
    9.8098   -0.8887    0.0000 C   0  0  0  0  0  0  0  0  0  0  0  0
    9.1167   -1.5818    0.0000 N   0  0  0  0  0  0  0  0  0  0  0  0
    8.1486   -1.4285    0.0000 C   0  0  0  0  0  0  0  0  0  0  0  0
    7.5317   -2.1903    0.0000 O   0  0  0  0  0  0  0  0  0  0  0  0
    7.7973   -0.5134    0.0000 C   0  0  1  0  0  0  0  0  0  0  0  0
    6.8822   -0.8647    0.0000 H   0  0  0  0  0  0  0  0  0  0  0  0
    7.4461    0.4017    0.0000 N   0  0  0  0  0  0  0  0  0  0  0  0
    6.4779    0.5550    0.0000 C   0  0  0  0  0  0  0  0  0  0  0  0
    6.1267    1.4701    0.0000 O   0  0  0  0  0  0  0  0  0  0  0  0
    5.8611   -0.2067    0.0000 O   0  0  0  0  0  0  0  0  0  0  0  0
    6.2123   -1.1218    0.0000 C   0  0  0  0  0  0  0  0  0  0  0  0
    8.7124   -0.1621    0.0000 C   0  0  1  0  0  0  0  0  0  0  0  0
    9.6806   -0.3155    0.0000 H   0  0  0  0  0  0  0  0  0  0  0  0
    9.0637   -1.0772    0.0000 C   0  0  0  0  0  0  0  0  0  0  0  0
    8.8658    0.8060    0.0000 O   0  0  0  0  0  0  0  0  0  0  0  0
    9.7809    1.1573    0.0000 C   0  0  0  0  0  0  0  0  0  0  0  0
    7.3944   -3.9932    0.0000 N   0  0  0  0  0  0  0  0  0  0  0  0
    7.9705   -4.7862    0.0000 H   0  0  0  0  0  0  0  0  0  0  0  0
    6.4142   -3.9932    0.0000 C   0  0  0  0  0  0  0  0  0  0  0  0
    5.7583   -4.7217    0.0000 C   0  0  0  0  0  0  0  0  0  0  0  0
    4.7995   -4.5179    0.0000 C   0  0  0  0  0  0  0  0  0  0  0  0
    4.1436   -5.2463    0.0000 F   0  0  0  0  0  0  0  0  0  0  0  0
    2.7449   -2.8057    0.0000 N   0  0  0  0  0  0  0  0  0  0  0  0
    2.7449   -0.8453    0.0000 C   0  0  0  0  0  0  0  0  0  0  0  0
    3.5937   -0.3552    0.0000 C   0  0  0  0  0  0  0  0  0  0  0  0
    3.5937    0.6250    0.0000 C   0  0  0  0  0  0  0  0  0  0  0  0
    4.4426    1.1151    0.0000 F   0  0  0  0  0  0  0  0  0  0  0  0
    2.7449    1.1151    0.0000 C   0  0  0  0  0  0  0  0  0  0  0  0
    2.7449    2.0953    0.0000 N   0  0  0  0  0  0  0  0  0  0  0  0
    3.5937    2.5854    0.0000 C   0  0  0  0  0  0  0  0  0  0  0  0
    3.5937    3.5656    0.0000 C   0  0  0  0  0  0  0  0  0  0  0  0
    2.7449    4.0557    0.0000 C   0  0  3  0  0  0  0  0  0  0  0  0
    2.7449    5.0359    0.0000 C   0  0  0  0  0  0  0  0  0  0  0  0
    3.5937    5.5260    0.0000 C   0  0  0  0  0  0  0  0  0  0  0  0
    3.5937    6.5062    0.0000 C   0  0  0  0  0  0  0  0  0  0  0  0
    2.7449    6.9963    0.0000 C   0  0  0  0  0  0  0  0  0  0  0  0
    2.7449    7.9765    0.0000 F   0  0  0  0  0  0  0  0  0  0  0  0
    1.8960    6.5062    0.0000 C   0  0  0  0  0  0  0  0  0  0  0  0
    1.8960    5.5260    0.0000 C   0  0  0  0  0  0  0  0  0  0  0  0
    1.8960    3.5656    0.0000 C   0  0  0  0  0  0  0  0  0  0  0  0
    1.8960    2.5854    0.0000 C   0  0  0  0  0  0  0  0  0  0  0  0
    1.8960    0.6250    0.0000 C   0  0  0  0  0  0  0  0  0  0  0  0
    1.0471    1.1151    0.0000 F   0  0  0  0  0  0  0  0  0  0  0  0
    1.8960   -0.3552    0.0000 C   0  0  0  0  0  0  0  0  0  0  0  0
    2.0407   -1.6864    0.0000 C   0  0  0  0  0  0  0  0  0  0  0  0
    3.0196   -1.7377    0.0000 F   0  0  0  0  0  0  0  0  0  0  0  0
    1.5957   -0.8131    0.0000 C   0  0  0  0  0  0  0  0  0  0  0  0
    0.6169   -0.7618    0.0000 C   0  0  0  0  0  0  0  0  0  0  0  0
    0.0000   -0.0000    0.0000 N   0  0  0  0  0  0  0  0  0  0  0  0
    0.2537    0.9468    0.0000 H   0  0  0  0  0  0  0  0  0  0  0  0
   -1.7748    3.2984    0.0000 C   0  0  1  0  0  0  0  0  0  0  0  0
   -0.8067    3.4517    0.0000 H   0  0  0  0  0  0  0  0  0  0  0  0
   -1.1580    2.5366    0.0000 C   0  0  0  0  0  0  0  0  0  0  0  0
   -1.9282    4.2665    0.0000 O   0  0  0  0  0  0  0  0  0  0  0  0
   -2.8433    4.6178    0.0000 C   0  0  0  0  0  0  0  0  0  0  0  0
  1  2  1  0  0  0  0
  2  3  1  0  0  0  0
  3  4  2  0  0  0  0
  3  5  1  0  0  0  0
  5  6  1  0  0  0  0
  6  7  1  6  0  0  0
  6  8  1  0  0  0  0
  6 86  1  0  0  0  0
  8  9  2  0  0  0  0
  8 10  1  0  0  0  0
 10 14  1  0  0  0  0
 10 11  1  0  0  0  0
 11 12  1  0  0  0  0
 12 13  1  0  0  0  0
 13 14  1  0  0  0  0
 14 15  1  1  0  0  0
 14 16  1  0  0  0  0
 16 84  1  0  0  0  0
 16 17  2  0  0  0  0
 17 18  1  0  0  0  0
 18 83  1  0  0  0  0
 18 19  2  0  0  0  0
 19 20  1  0  0  0  0
 20 21  1  0  0  0  0
 20 80  2  0  0  0  0
 21 22  1  1  0  0  0
 21 58  1  0  0  0  0
 21 23  1  0  0  0  0
 23 24  1  0  0  0  0
 24 25  1  0  0  0  0
 25 26  1  6  0  0  0
 25 27  1  0  0  0  0
 25 58  1  0  0  0  0
 27 56  1  0  0  0  0
 27 28  2  0  0  0  0
 28 29  1  0  0  0  0
 29 54  2  0  0  0  0
 29 30  1  0  0  0  0
 30 31  2  0  0  0  0
 31 32  1  0  0  0  0
 31 52  1  0  0  0  0
 32 33  1  6  0  0  0
 32 37  1  0  0  0  0
 32 34  1  0  0  0  0
 34 35  1  0  0  0  0
 35 36  1  0  0  0  0
 36 37  1  0  0  0  0
 37 38  1  0  0  0  0
 38 39  2  0  0  0  0
 38 40  1  0  0  0  0
 40 41  1  6  0  0  0
 40 42  1  0  0  0  0
 40 47  1  0  0  0  0
 42 43  1  0  0  0  0
 43 44  2  0  0  0  0
 43 45  1  0  0  0  0
 45 46  1  0  0  0  0
 47 48  1  1  0  0  0
 47 49  1  0  0  0  0
 47 50  1  0  0  0  0
 50 51  1  0  0  0  0
 52 53  1  0  0  0  0
 52 54  1  0  0  0  0
 54 55  1  0  0  0  0
 55 56  2  0  0  0  0
 56 57  1  0  0  0  0
 58 59  1  0  0  0  0
 59 79  1  0  0  0  0
 59 60  2  0  0  0  0
 60 61  1  0  0  0  0
 61 62  1  0  0  0  0
 61 63  2  0  0  0  0
 63 64  1  0  0  0  0
 63 77  1  0  0  0  0
 64 76  1  0  0  0  0
 64 65  1  0  0  0  0
 65 66  1  0  0  0  0
 66 67  1  0  0  0  0
 67 68  1  0  0  0  0
 67 75  1  0  0  0  0
 68 74  1  0  0  0  0
 68 69  2  0  0  0  0
 69 70  1  0  0  0  0
 70 71  2  0  0  0  0
 71 72  1  0  0  0  0
 71 73  1  0  0  0  0
 73 74  2  0  0  0  0
 75 76  1  0  0  0  0
 77 78  1  0  0  0  0
 77 79  2  0  0  0  0
 80 81  1  0  0  0  0
 80 82  1  0  0  0  0
 82 83  2  0  0  0  0
 83 84  1  0  0  0  0
 84 85  1  0  0  0  0
 86 87  1  1  0  0  0
 86 88  1  0  0  0  0
 86 89  1  0  0  0  0
 89 90  1  0  0  0  0
M  END
$$$$

 OpenBabel10082008492D

 33 37  0  0  1  0  0  0  0  0999 V2000
   -1.8983   -0.0002    0.0000 O   0  0  0  0  0  0  0  0  0  0  0  0
   -1.4239    0.8218    0.0000 C   0  0  0  0  0  0  0  0  0  0  0  0
   -1.8985    1.6438    0.0000 N   0  0  0  0  0  0  0  0  0  0  0  0
   -2.8477    1.6437    0.0000 N   0  0  0  0  0  0  0  0  0  0  0  0
   -3.4607    0.7998    0.0000 C   0  0  0  0  0  0  0  0  0  0  0  0
   -3.1673   -0.1029    0.0000 O   0  0  0  0  0  0  0  0  0  0  0  0
   -4.4527    1.1220    0.0000 C   0  0  1  0  0  0  0  0  0  0  0  0
   -4.4526    0.1547    0.0000 H   0  0  0  0  0  0  0  0  0  0  0  0
   -5.3561    0.6003    0.0000 C   0  0  1  0  0  0  0  0  0  0  0  0
   -5.3560   -0.3671    0.0000 H   0  0  0  0  0  0  0  0  0  0  0  0
   -4.9873    1.2392    0.0000 C   0  0  0  0  0  0  0  0  0  0  0  0
   -4.9874    2.0477    0.0000 C   0  0  0  0  0  0  0  0  0  0  0  0
   -5.3563    2.6866    0.0000 C   0  0  2  0  0  0  0  0  0  0  0  0
   -5.3564    3.6539    0.0000 H   0  0  0  0  0  0  0  0  0  0  0  0
   -6.2595    2.1648    0.0000 C   0  0  2  0  0  0  0  0  0  0  0  0
   -6.2596    3.1322    0.0000 H   0  0  0  0  0  0  0  0  0  0  0  0
   -7.1627    1.6432    0.0000 C   0  0  0  0  0  0  0  0  0  0  0  0
   -6.2594    1.1218    0.0000 C   0  0  2  0  0  0  0  0  0  0  0  0
   -6.2593    0.1545    0.0000 H   0  0  0  0  0  0  0  0  0  0  0  0
   -4.4528    2.1650    0.0000 C   0  0  1  0  0  0  0  0  0  0  0  0
   -4.4529    3.1324    0.0000 H   0  0  0  0  0  0  0  0  0  0  0  0
   -3.4609    2.4875    0.0000 C   0  0  0  0  0  0  0  0  0  0  0  0
   -3.1677    3.3902    0.0000 O   0  0  0  0  0  0  0  0  0  0  0  0
   -0.4747    0.8220    0.0000 C   0  0  0  0  0  0  0  0  0  0  0  0
   -0.0002    1.6440    0.0000 C   0  0  0  0  0  0  0  0  0  0  0  0
    0.9490    1.6441    0.0000 C   0  0  0  0  0  0  0  0  0  0  0  0
    1.4237    0.8222    0.0000 C   0  0  0  0  0  0  0  0  0  0  0  0
    2.3728    0.8223    0.0000 C   0  0  0  0  0  0  0  0  0  0  0  0
    3.1948    1.2970    0.0000 F   0  0  0  0  0  0  0  0  0  0  0  0
    2.3727    1.7714    0.0000 F   0  0  0  0  0  0  0  0  0  0  0  0
    2.8475    0.0003    0.0000 F   0  0  0  0  0  0  0  0  0  0  0  0
    0.9492    0.0001    0.0000 C   0  0  0  0  0  0  0  0  0  0  0  0
    0.0000   -0.0000    0.0000 C   0  0  0  0  0  0  0  0  0  0  0  0
  1  2  2  0  0  0  0
  2  3  1  0  0  0  0
  2 24  1  0  0  0  0
  3  4  1  0  0  0  0
  4 22  1  0  0  0  0
  4  5  1  0  0  0  0
  5  6  2  0  0  0  0
  5  7  1  0  0  0  0
  7  8  1  6  0  0  0
  7 20  1  0  0  0  0
  7  9  1  0  0  0  0
  9 10  1  1  0  0  0
  9 18  1  0  0  0  0
  9 11  1  0  0  0  0
 11 12  2  0  0  0  0
 12 13  1  0  0  0  0
 13 14  1  1  0  0  0
 13 15  1  0  0  0  0
 13 20  1  0  0  0  0
 15 16  1  6  0  0  0
 15 18  1  0  0  0  0
 15 17  1  0  0  0  0
 17 18  1  0  0  0  0
 18 19  1  6  0  0  0
 20 21  1  6  0  0  0
 20 22  1  0  0  0  0
 22 23  2  0  0  0  0
 24 33  1  0  0  0  0
 24 25  2  0  0  0  0
 25 26  1  0  0  0  0
 26 27  2  0  0  0  0
 27 28  1  0  0  0  0
 27 32  1  0  0  0  0
 28 29  1  0  0  0  0
 28 30  1  0  0  0  0
 28 31  1  0  0  0  0
 32 33  2  0  0  0  0
M  END
$$$$

 OpenBabel10082008492D

 17 18  0  0  0  0  0  0  0  0999 V2000
    4.4432    1.7319    0.0000 C   0  0  0  0  0  0  0  0  0  0  0  0
    3.4487    1.8364    0.0000 C   0  0  0  0  0  0  0  0  0  0  0  0
    2.7796    1.0933    0.0000 C   0  0  0  0  0  0  0  0  0  0  0  0
    1.8660    1.5000    0.0000 C   0  0  0  0  0  0  0  0  0  0  0  0
    1.0000    1.0000    0.0000 N   0  0  0  0  0  0  0  0  0  0  0  0
    1.0000   -0.0000    0.0000 S   0  0  0  0  0  0  0  0  0  0  0  0
    2.0000   -0.0000    0.0000 O   0  0  0  0  0  0  0  0  0  0  0  0
    1.0000   -1.0000    0.0000 O   0  0  0  0  0  0  0  0  0  0  0  0
   -0.0000   -0.0000    0.0000 C   0  0  0  0  0  0  0  0  0  0  0  0
   -0.5000    0.8660    0.0000 C   0  0  0  0  0  0  0  0  0  0  0  0
   -1.5000    0.8660    0.0000 C   0  0  0  0  0  0  0  0  0  0  0  0
   -2.0000    0.0000    0.0000 C   0  0  0  0  0  0  0  0  0  0  0  0
   -3.0000    0.0000    0.0000 N   0  0  0  0  0  0  0  0  0  0  0  0
   -1.5000   -0.8660    0.0000 C   0  0  0  0  0  0  0  0  0  0  0  0
   -0.5000   -0.8660    0.0000 C   0  0  0  0  0  0  0  0  0  0  0  0
    1.9706    2.4945    0.0000 N   0  0  0  0  0  0  0  0  0  0  0  0
    2.9487    2.7024    0.0000 O   0  0  0  0  0  0  0  0  0  0  0  0
  1  2  1  0  0  0  0
  2 17  1  0  0  0  0
  2  3  2  0  0  0  0
  3  4  1  0  0  0  0
  4  5  1  0  0  0  0
  4 16  2  0  0  0  0
  5  6  1  0  0  0  0
  6  7  2  0  0  0  0
  6  8  2  0  0  0  0
  6  9  1  0  0  0  0
  9 15  1  0  0  0  0
  9 10  2  0  0  0  0
 10 11  1  0  0  0  0
 11 12  2  0  0  0  0
 12 13  1  0  0  0  0
 12 14  1  0  0  0  0
 14 15  2  0  0  0  0
 16 17  1  0  0  0  0
M  END
$$$$

 OpenBabel10082008492D

 22 25  0  0  0  0  0  0  0  0999 V2000
   -0.5690   -4.6984    0.0000 C   0  0  0  0  0  0  0  0  0  0  0  0
    0.1111   -3.9653    0.0000 C   0  0  0  0  0  0  0  0  0  0  0  0
   -0.0821   -2.9842    0.0000 C   0  0  0  0  0  0  0  0  0  0  0  0
    0.7913   -2.4972    0.0000 C   0  0  0  0  0  0  0  0  0  0  0  0
    1.5243   -3.1774    0.0000 C   0  0  0  0  0  0  0  0  0  0  0  0
    1.1040   -4.0847    0.0000 S   0  0  0  0  0  0  0  0  0  0  0  0
    2.5132   -3.0283    0.0000 N   0  0  0  0  0  0  0  0  0  0  0  0
    3.0132   -2.1623    0.0000 C   0  0  0  0  0  0  0  0  0  0  0  0
    4.0020   -2.3114    0.0000 C   0  0  0  0  0  0  0  0  0  0  0  0
    4.6255   -1.5295    0.0000 C   0  0  0  0  0  0  0  0  0  0  0  0
    4.2602   -0.5986    0.0000 C   0  0  0  0  0  0  0  0  0  0  0  0
    3.2713   -0.4496    0.0000 C   0  0  0  0  0  0  0  0  0  0  0  0
    2.6478   -1.2314    0.0000 C   0  0  0  0  0  0  0  0  0  0  0  0
    1.6923   -0.9367    0.0000 N   0  0  0  0  0  0  0  0  0  0  0  0
    0.8660   -1.5000    0.0000 C   0  0  0  0  0  0  0  0  0  0  0  0
    0.0000   -1.0000    0.0000 N   0  0  0  0  0  0  0  0  0  0  0  0
   -0.8660   -1.5000    0.0000 C   0  0  0  0  0  0  0  0  0  0  0  0
   -1.7321   -1.0000    0.0000 C   0  0  0  0  0  0  0  0  0  0  0  0
   -1.7321   -0.0000    0.0000 N   0  0  0  0  0  0  0  0  0  0  0  0
   -2.5981    0.5000    0.0000 C   0  0  0  0  0  0  0  0  0  0  0  0
   -0.8660    0.5000    0.0000 C   0  0  0  0  0  0  0  0  0  0  0  0
    0.0000    0.0000    0.0000 C   0  0  0  0  0  0  0  0  0  0  0  0
  1  2  1  0  0  0  0
  2  6  1  0  0  0  0
  2  3  2  0  0  0  0
  3  4  1  0  0  0  0
  4 15  1  0  0  0  0
  4  5  2  0  0  0  0
  5  6  1  0  0  0  0
  5  7  1  0  0  0  0
  7  8  1  0  0  0  0
  8 13  1  0  0  0  0
  8  9  2  0  0  0  0
  9 10  1  0  0  0  0
 10 11  2  0  0  0  0
 11 12  1  0  0  0  0
 12 13  2  0  0  0  0
 13 14  1  0  0  0  0
 14 15  2  0  0  0  0
 15 16  1  0  0  0  0
 16 22  1  0  0  0  0
 16 17  1  0  0  0  0
 17 18  1  0  0  0  0
 18 19  1  0  0  0  0
 19 20  1  0  0  0  0
 19 21  1  0  0  0  0
 21 22  1  0  0  0  0
M  END
$$$$

 OpenBabel10082008492D

 23 24  0  0  0  0  0  0  0  0999 V2000
   -3.5491   -1.1910    0.0000 C   0  0  0  0  0  0  0  0  0  0  0  0
   -3.5491   -0.1910    0.0000 O   0  0  0  0  0  0  0  0  0  0  0  0
   -2.6831    0.3090    0.0000 C   0  0  0  0  0  0  0  0  0  0  0  0
   -1.8171   -0.1910    0.0000 C   0  0  0  0  0  0  0  0  0  0  0  0
   -1.8171   -1.1910    0.0000 C   0  0  0  0  0  0  0  0  0  0  0  0
   -0.9511    0.3090    0.0000 C   0  0  0  0  0  0  0  0  0  0  0  0
   -0.9511    1.3090    0.0000 C   0  0  0  0  0  0  0  0  0  0  0  0
   -1.8171    1.8090    0.0000 C   0  0  0  0  0  0  0  0  0  0  0  0
   -1.8171    2.8090    0.0000 O   0  0  0  0  0  0  0  0  0  0  0  0
   -2.6831    1.3090    0.0000 C   0  0  0  0  0  0  0  0  0  0  0  0
   -3.5491    1.8090    0.0000 C   0  0  0  0  0  0  0  0  0  0  0  0
   -4.4152    1.3090    0.0000 C   0  0  0  0  0  0  0  0  0  0  0  0
   -5.2812    1.8090    0.0000 C   0  0  0  0  0  0  0  0  0  0  0  0
   -5.2812    2.8090    0.0000 C   0  0  0  0  0  0  0  0  0  0  0  0
   -6.1472    1.3090    0.0000 C   0  0  0  0  0  0  0  0  0  0  0  0
   -7.0132    1.8090    0.0000 C   0  0  0  0  0  0  0  0  0  0  0  0
   -7.0132    2.8090    0.0000 C   0  0  0  0  0  0  0  0  0  0  0  0
   -6.1472    3.3090    0.0000 O   0  0  0  0  0  0  0  0  0  0  0  0
   -7.8793    3.3090    0.0000 O   0  0  0  0  0  0  0  0  0  0  0  0
   -0.0000    1.6180    0.0000 C   0  0  0  0  0  0  0  0  0  0  0  0
    0.3090    2.5691    0.0000 O   0  0  0  0  0  0  0  0  0  0  0  0
    0.5878    0.8090    0.0000 O   0  0  0  0  0  0  0  0  0  0  0  0
    0.0000    0.0000    0.0000 C   0  0  0  0  0  0  0  0  0  0  0  0
  1  2  1  0  0  0  0
  2  3  1  0  0  0  0
  3 10  1  0  0  0  0
  3  4  2  0  0  0  0
  4  5  1  0  0  0  0
  4  6  1  0  0  0  0
  6 23  1  0  0  0  0
  6  7  2  0  0  0  0
  7  8  1  0  0  0  0
  7 20  1  0  0  0  0
  8  9  1  0  0  0  0
  8 10  2  0  0  0  0
 10 11  1  0  0  0  0
 11 12  1  0  0  0  0
 12 13  2  0  0  0  0
 13 14  1  0  0  0  0
 13 15  1  0  0  0  0
 15 16  1  0  0  0  0
 16 17  1  0  0  0  0
 17 18  2  0  0  0  0
 17 19  1  0  0  0  0
 20 21  2  0  0  0  0
 20 22  1  0  0  0  0
 22 23  1  0  0  0  0
M  END
$$$$

 OpenBabel10082008492D

 27 29  0  0  0  0  0  0  0  0999 V2000
    2.5000    0.8660    0.0000 C   0  0  0  0  0  0  0  0  0  0  0  0
    1.5000    0.8660    0.0000 O   0  0  0  0  0  0  0  0  0  0  0  0
    1.0000   -0.0000    0.0000 C   0  0  0  0  0  0  0  0  0  0  0  0
    1.5000   -0.8660    0.0000 C   0  0  0  0  0  0  0  0  0  0  0  0
    1.0000   -1.7321    0.0000 C   0  0  0  0  0  0  0  0  0  0  0  0
    0.0000   -1.7321    0.0000 N   0  0  0  0  0  0  0  0  0  0  0  0
   -0.5000   -0.8660    0.0000 C   0  0  0  0  0  0  0  0  0  0  0  0
   -1.5000   -0.8660    0.0000 C   0  0  0  0  0  0  0  0  0  0  0  0
   -2.0000    0.0000    0.0000 S   0  3  3  0  0  0  0  0  0  0  0  0
   -1.5000    0.8660    0.0000 O   0  5  0  0  0  0  0  0  0  0  0  0
   -3.0000    0.0000    0.0000 C   0  0  0  0  0  0  0  0  0  0  0  0
   -3.5878   -0.8090    0.0000 N   0  0  0  0  0  0  0  0  0  0  0  0
   -4.5388   -0.5000    0.0000 C   0  0  0  0  0  0  0  0  0  0  0  0
   -5.4049   -1.0000    0.0000 C   0  0  0  0  0  0  0  0  0  0  0  0
   -6.2709   -0.5000    0.0000 C   0  0  0  0  0  0  0  0  0  0  0  0
   -7.1369   -1.0000    0.0000 O   0  0  0  0  0  0  0  0  0  0  0  0
   -8.0029   -0.5000    0.0000 C   0  0  0  0  0  0  0  0  0  0  0  0
   -8.0029    0.5000    0.0000 F   0  0  0  0  0  0  0  0  0  0  0  0
   -8.8690   -1.0000    0.0000 F   0  0  0  0  0  0  0  0  0  0  0  0
   -6.2709    0.5000    0.0000 C   0  0  0  0  0  0  0  0  0  0  0  0
   -5.4049    1.0000    0.0000 C   0  0  0  0  0  0  0  0  0  0  0  0
   -4.5388    0.5000    0.0000 C   0  0  0  0  0  0  0  0  0  0  0  0
   -3.5878    0.8090    0.0000 N   0  0  0  0  0  0  0  0  0  0  0  0
   -3.2788    1.7601    0.0000 H   0  0  0  0  0  0  0  0  0  0  0  0
   -0.0000   -0.0000    0.0000 C   0  0  0  0  0  0  0  0  0  0  0  0
   -0.5000    0.8660    0.0000 O   0  0  0  0  0  0  0  0  0  0  0  0
    0.0000    1.7321    0.0000 C   0  0  0  0  0  0  0  0  0  0  0  0
  1  2  1  0  0  0  0
  2  3  1  0  0  0  0
  3 25  1  0  0  0  0
  3  4  2  0  0  0  0
  4  5  1  0  0  0  0
  5  6  2  0  0  0  0
  6  7  1  0  0  0  0
  7  8  1  0  0  0  0
  7 25  2  0  0  0  0
  8  9  1  0  0  0  0
  9 10  1  0  0  0  0
  9 11  1  0  0  0  0
 11 23  1  0  0  0  0
 11 12  2  0  0  0  0
 12 13  1  0  0  0  0
 13 22  1  0  0  0  0
 13 14  2  0  0  0  0
 14 15  1  0  0  0  0
 15 16  1  0  0  0  0
 15 20  2  0  0  0  0
 16 17  1  0  0  0  0
 17 18  1  0  0  0  0
 17 19  1  0  0  0  0
 20 21  1  0  0  0  0
 21 22  2  0  0  0  0
 22 23  1  0  0  0  0
 23 24  1  0  0  0  0
 25 26  1  0  0  0  0
 26 27  1  0  0  0  0
M  CHG  2   9   1  10  -1
M  END
$$$$

 OpenBabel10082008492D

 34 38  0  0  0  0  0  0  0  0999 V2000
    1.5962    2.1100    0.0000 N   0  0  0  0  0  0  0  0  0  0  0  0
    1.2872    1.1590    0.0000 C   0  0  0  0  0  0  0  0  0  0  0  0
    0.9781    0.2079    0.0000 C   0  0  0  0  0  0  0  0  0  0  0  0
    1.6473   -0.5352    0.0000 C   0  0  0  0  0  0  0  0  0  0  0  0
    1.3383   -1.4863    0.0000 C   0  0  0  0  0  0  0  0  0  0  0  0
    0.3601   -1.6942    0.0000 C   0  0  0  0  0  0  0  0  0  0  0  0
   -0.1399   -2.5602    0.0000 N   0  0  0  0  0  0  0  0  0  0  0  0
    0.2669   -3.4738    0.0000 H   0  0  0  0  0  0  0  0  0  0  0  0
   -1.1180   -2.3523    0.0000 C   0  0  0  0  0  0  0  0  0  0  0  0
   -1.2226   -1.3578    0.0000 C   0  0  0  0  0  0  0  0  0  0  0  0
   -2.0886   -0.8578    0.0000 C   0  0  0  0  0  0  0  0  0  0  0  0
   -2.9546   -1.3578    0.0000 C   0  0  0  0  0  0  0  0  0  0  0  0
   -3.8206   -0.8578    0.0000 C   0  0  0  0  0  0  0  0  0  0  0  0
   -3.8206    0.1422    0.0000 C   0  0  0  0  0  0  0  0  0  0  0  0
   -4.6867    0.6422    0.0000 N   0  0  0  0  0  0  0  0  0  0  0  0
   -5.5527    0.1422    0.0000 C   0  0  0  0  0  0  0  0  0  0  0  0
   -6.4187    0.6422    0.0000 C   0  0  0  0  0  0  0  0  0  0  0  0
   -6.4187    1.6422    0.0000 N   0  0  0  0  0  0  0  0  0  0  0  0
   -7.2847    2.1422    0.0000 C   0  0  0  0  0  0  0  0  0  0  0  0
   -8.1508    1.6422    0.0000 C   0  0  0  0  0  0  0  0  0  0  0  0
   -9.0168    2.1422    0.0000 C   0  0  0  0  0  0  0  0  0  0  0  0
   -9.0168    3.1422    0.0000 C   0  0  0  0  0  0  0  0  0  0  0  0
   -9.7599    3.8113    0.0000 O   0  0  0  0  0  0  0  0  0  0  0  0
   -9.3532    4.7249    0.0000 C   0  0  0  0  0  0  0  0  0  0  0  0
   -9.8532    5.5909    0.0000 C   0  0  0  0  0  0  0  0  0  0  0  0
   -9.3532    6.4569    0.0000 N   0  0  0  0  0  0  0  0  0  0  0  0
  -10.8532    5.5909    0.0000 O   0  0  0  0  0  0  0  0  0  0  0  0
   -8.3587    4.6204    0.0000 C   0  0  0  0  0  0  0  0  0  0  0  0
   -8.1508    3.6422    0.0000 C   0  0  0  0  0  0  0  0  0  0  0  0
   -7.2847    3.1422    0.0000 C   0  0  0  0  0  0  0  0  0  0  0  0
   -5.5527    2.1422    0.0000 C   0  0  0  0  0  0  0  0  0  0  0  0
   -4.6867    1.6422    0.0000 C   0  0  0  0  0  0  0  0  0  0  0  0
   -0.3090   -0.9511    0.0000 C   0  0  0  0  0  0  0  0  0  0  0  0
   -0.0000   -0.0000    0.0000 C   0  0  0  0  0  0  0  0  0  0  0  0
  1  2  3  0  0  0  0
  2  3  1  0  0  0  0
  3 34  1  0  0  0  0
  3  4  2  0  0  0  0
  4  5  1  0  0  0  0
  5  6  2  0  0  0  0
  6 33  1  0  0  0  0
  6  7  1  0  0  0  0
  7  8  1  0  0  0  0
  7  9  1  0  0  0  0
  9 10  2  0  0  0  0
 10 11  1  0  0  0  0
 10 33  1  0  0  0  0
 11 12  1  0  0  0  0
 12 13  1  0  0  0  0
 13 14  1  0  0  0  0
 14 15  1  0  0  0  0
 15 32  1  0  0  0  0
 15 16  1  0  0  0  0
 16 17  1  0  0  0  0
 17 18  1  0  0  0  0
 18 19  1  0  0  0  0
 18 31  1  0  0  0  0
 19 30  1  0  0  0  0
 19 20  2  0  0  0  0
 20 21  1  0  0  0  0
 21 22  2  0  0  0  0
 22 29  1  0  0  0  0
 22 23  1  0  0  0  0
 23 24  1  0  0  0  0
 24 25  1  0  0  0  0
 24 28  2  0  0  0  0
 25 26  1  0  0  0  0
 25 27  2  0  0  0  0
 28 29  1  0  0  0  0
 29 30  2  0  0  0  0
 31 32  1  0  0  0  0
 33 34  2  0  0  0  0
M  END
$$$$

 OpenBabel10082008492D

 15 17  0  0  1  0  0  0  0  0999 V2000
    3.5108   -0.1626    0.0000 C   0  0  0  0  0  0  0  0  0  0  0  0
    2.9525    0.6058    0.0000 C   0  0  0  0  0  0  0  0  0  0  0  0
    2.0079    0.5065    0.0000 C   0  0  0  0  0  0  0  0  0  0  0  0
    1.6215   -0.3612    0.0000 C   0  0  0  0  0  0  0  0  0  0  0  0
    0.7182   -0.6547    0.0000 C   0  0  1  0  0  0  0  0  0  0  0  0
    0.9330    0.3219    0.0000 H   0  0  0  0  0  0  0  0  0  0  0  0
    0.5142   -1.5824    0.0000 C   0  0  0  0  0  0  0  0  0  0  0  0
   -0.3996   -1.8793    0.0000 N   0  0  0  0  0  0  0  0  0  0  0  0
   -1.3137   -2.1763    0.0000 C   0  0  0  0  0  0  0  0  0  0  0  0
   -2.0319   -1.5216    0.0000 C   0  0  0  0  0  0  0  0  0  0  0  0
   -1.8279   -0.5939    0.0000 S   0  0  0  0  0  0  0  0  0  0  0  0
   -0.9138   -0.2969    0.0000 C   0  0  0  0  0  0  0  0  0  0  0  0
    0.0000   -0.0000    0.0000 N   0  0  0  0  0  0  0  0  0  0  0  0
    2.1798   -1.1297    0.0000 C   0  0  0  0  0  0  0  0  0  0  0  0
    3.1245   -1.0304    0.0000 C   0  0  0  0  0  0  0  0  0  0  0  0
  1 15  1  0  0  0  0
  1  2  2  0  0  0  0
  2  3  1  0  0  0  0
  3  4  2  0  0  0  0
  4  5  1  0  0  0  0
  4 14  1  0  0  0  0
  5  6  1  6  0  0  0
  5 13  1  0  0  0  0
  5  7  1  0  0  0  0
  7  8  1  0  0  0  0
  8 12  1  0  0  0  0
  8  9  1  0  0  0  0
  9 10  1  0  0  0  0
 10 11  1  0  0  0  0
 11 12  1  0  0  0  0
 12 13  2  0  0  0  0
 14 15  2  0  0  0  0
M  END
$$$$

 OpenBabel10082008492D

 23 26  0  0  1  0  0  0  0  0999 V2000
    3.3313    0.9617    0.0000 C   0  0  0  0  0  0  0  0  0  0  0  0
    1.6656    0.0000    0.0000 N   0  0  0  0  0  0  0  0  0  0  0  0
    0.8328    0.4808    0.0000 C   0  0  3  0  0  0  0  0  0  0  0  0
    1.5412    0.6993    0.0000 C   0  0  0  0  0  0  0  0  0  0  0  0
    2.1536    0.2817    0.0000 C   0  0  0  0  0  0  0  0  0  0  0  0
    2.2090   -0.4575    0.0000 C   0  0  0  0  0  0  0  0  0  0  0  0
    1.6656   -0.9617    0.0000 C   0  0  3  0  0  0  0  0  0  0  0  0
    0.8328   -1.4425    0.0000 C   0  0  0  0  0  0  0  0  0  0  0  0
    0.0000   -0.9617    0.0000 C   0  0  3  0  0  0  0  0  0  0  0  0
   -0.8328   -1.4425    0.0000 N   0  0  0  0  0  0  0  0  0  0  0  0
   -1.6656   -0.9617    0.0000 C   0  0  0  0  0  0  0  0  0  0  0  0
   -1.6656   -0.0000    0.0000 O   0  0  0  0  0  0  0  0  0  0  0  0
   -2.4985   -1.4425    0.0000 C   0  0  0  0  0  0  0  0  0  0  0  0
   -2.5990   -2.3989    0.0000 N   0  0  0  0  0  0  0  0  0  0  0  0
   -3.5396   -2.5988    0.0000 N   0  0  0  0  0  0  0  0  0  0  0  0
   -3.9308   -3.4773    0.0000 C   0  0  0  0  0  0  0  0  0  0  0  0
   -4.0205   -1.7660    0.0000 C   0  0  0  0  0  0  0  0  0  0  0  0
   -4.9611   -1.5661    0.0000 C   0  0  0  0  0  0  0  0  0  0  0  0
   -5.2583   -0.6515    0.0000 C   0  0  0  0  0  0  0  0  0  0  0  0
   -4.6148    0.0632    0.0000 C   0  0  0  0  0  0  0  0  0  0  0  0
   -3.6742   -0.1368    0.0000 C   0  0  0  0  0  0  0  0  0  0  0  0
   -3.3770   -1.0513    0.0000 C   0  0  0  0  0  0  0  0  0  0  0  0
    0.0000   -0.0000    0.0000 C   0  0  0  0  0  0  0  0  0  0  0  0
  1  2  1  0  0  0  0
  2  7  1  0  0  0  0
  2  3  1  0  0  0  0
  3 23  1  0  0  0  0
  3  4  1  0  0  0  0
  4  5  1  0  0  0  0
  5  6  1  0  0  0  0
  6  7  1  0  0  0  0
  7  8  1  0  0  0  0
  8  9  1  0  0  0  0
  9 10  1  0  0  0  0
  9 23  1  0  0  0  0
 10 11  1  0  0  0  0
 11 12  2  0  0  0  0
 11 13  1  0  0  0  0
 13 22  1  0  0  0  0
 13 14  2  0  0  0  0
 14 15  1  0  0  0  0
 15 16  1  0  0  0  0
 15 17  1  0  0  0  0
 17 22  1  0  0  0  0
 17 18  2  0  0  0  0
 18 19  1  0  0  0  0
 19 20  2  0  0  0  0
 20 21  1  0  0  0  0
 21 22  2  0  0  0  0
M  END
$$$$

 OpenBabel10082008492D

 11 11  0  0  0  0  0  0  0  0999 V2000
    1.7321   -0.0000    0.0000 N   0  0  0  0  0  0  0  0  0  0  0  0
    0.8660   -0.5000    0.0000 C   0  0  0  0  0  0  0  0  0  0  0  0
    0.8660   -1.5000    0.0000 C   0  0  0  0  0  0  0  0  0  0  0  0
    0.0000   -2.0000    0.0000 C   0  0  0  0  0  0  0  0  0  0  0  0
   -0.8660   -1.5000    0.0000 C   0  0  0  0  0  0  0  0  0  0  0  0
   -1.7321   -2.0000    0.0000 O   0  0  0  0  0  0  0  0  0  0  0  0
   -0.8660   -0.5000    0.0000 C   0  0  0  0  0  0  0  0  0  0  0  0
   -1.7321   -0.0000    0.0000 C   0  0  0  0  0  0  0  0  0  0  0  0
   -1.7321    1.0000    0.0000 O   0  0  0  0  0  0  0  0  0  0  0  0
   -2.5981   -0.5000    0.0000 O   0  0  0  0  0  0  0  0  0  0  0  0
    0.0000   -0.0000    0.0000 C   0  0  0  0  0  0  0  0  0  0  0  0
  1  2  1  0  0  0  0
  2 11  1  0  0  0  0
  2  3  2  0  0  0  0
  3  4  1  0  0  0  0
  4  5  2  0  0  0  0
  5  6  1  0  0  0  0
  5  7  1  0  0  0  0
  7  8  1  0  0  0  0
  7 11  2  0  0  0  0
  8  9  2  0  0  0  0
  8 10  1  0  0  0  0
M  END
$$$$

 OpenBabel10082008492D

 19 20  0  0  1  0  0  0  0  0999 V2000
    2.5391   -2.3625    0.0000 C   0  0  0  0  0  0  0  0  0  0  0  0
    1.8320   -1.6554    0.0000 O   0  0  0  0  0  0  0  0  0  0  0  0
    0.8660   -1.9142    0.0000 C   0  0  0  0  0  0  0  0  0  0  0  0
    0.6072   -2.8801    0.0000 O   0  0  0  0  0  0  0  0  0  0  0  0
    0.1589   -1.2071    0.0000 C   0  0  2  0  0  0  0  0  0  0  0  0
   -0.5482   -1.9142    0.0000 H   0  0  0  0  0  0  0  0  0  0  0  0
   -0.5482   -0.5000    0.0000 C   0  0  0  0  0  0  0  0  0  0  0  0
   -0.2894    0.4659    0.0000 C   0  0  0  0  0  0  0  0  0  0  0  0
   -0.9965    1.1730    0.0000 C   0  0  0  0  0  0  0  0  0  0  0  0
   -1.9624    0.9142    0.0000 C   0  0  0  0  0  0  0  0  0  0  0  0
   -2.2212   -0.0517    0.0000 C   0  0  0  0  0  0  0  0  0  0  0  0
   -1.5141   -0.7588    0.0000 C   0  0  0  0  0  0  0  0  0  0  0  0
    0.8660   -0.5000    0.0000 C   0  0  1  0  0  0  0  0  0  0  0  0
    1.7899   -0.8827    0.0000 H   0  0  0  0  0  0  0  0  0  0  0  0
    1.7321   -0.0000    0.0000 C   0  0  0  0  0  0  0  0  0  0  0  0
    1.7321    1.0000    0.0000 C   0  0  0  0  0  0  0  0  0  0  0  0
    0.8660    1.5000    0.0000 C   0  0  0  0  0  0  0  0  0  0  0  0
    0.0000    1.0000    0.0000 C   0  0  0  0  0  0  0  0  0  0  0  0
   -0.0000   -0.0000    0.0000 N   0  0  0  0  0  0  0  0  0  0  0  0
  1  2  1  0  0  0  0
  2  3  1  0  0  0  0
  3  4  2  0  0  0  0
  3  5  1  0  0  0  0
  5  6  1  1  0  0  0
  5  7  1  0  0  0  0
  5 13  1  0  0  0  0
  7 12  1  0  0  0  0
  7  8  2  0  0  0  0
  8  9  1  0  0  0  0
  9 10  2  0  0  0  0
 10 11  1  0  0  0  0
 11 12  2  0  0  0  0
 13 14  1  1  0  0  0
 13 19  1  0  0  0  0
 13 15  1  0  0  0  0
 15 16  1  0  0  0  0
 16 17  1  0  0  0  0
 17 18  1  0  0  0  0
 18 19  1  0  0  0  0
M  END
$$$$

 OpenBabel10082008492D

 20 21  0  0  1  0  0  0  0  0999 V2000
    0.8660    4.9641    0.0000 C   0  0  0  0  0  0  0  0  0  0  0  0
    0.3660    4.0981    0.0000 N   0  0  0  0  0  0  0  0  0  0  0  0
    0.8660    3.2321    0.0000 C   0  0  0  0  0  0  0  0  0  0  0  0
    0.3660    2.3660    0.0000 C   0  0  0  0  0  0  0  0  0  0  0  0
    0.8660    1.5000    0.0000 C   0  0  1  0  0  0  0  0  0  0  0  0
    1.7321    2.0000    0.0000 H   0  0  0  0  0  0  0  0  0  0  0  0
    1.3660    0.6340    0.0000 O   0  0  0  0  0  0  0  0  0  0  0  0
    2.3660    0.6340    0.0000 C   0  0  0  0  0  0  0  0  0  0  0  0
    2.8660    1.5000    0.0000 C   0  0  0  0  0  0  0  0  0  0  0  0
    3.8660    1.5000    0.0000 C   0  0  0  0  0  0  0  0  0  0  0  0
    4.3660    0.6340    0.0000 C   0  0  0  0  0  0  0  0  0  0  0  0
    3.8660   -0.2321    0.0000 C   0  0  0  0  0  0  0  0  0  0  0  0
    2.8660   -0.2321    0.0000 C   0  0  0  0  0  0  0  0  0  0  0  0
    2.3660   -1.0981    0.0000 C   0  0  0  0  0  0  0  0  0  0  0  0
    0.0000    1.0000    0.0000 C   0  0  0  0  0  0  0  0  0  0  0  0
   -0.8660    1.5000    0.0000 C   0  0  0  0  0  0  0  0  0  0  0  0
   -1.7321    1.0000    0.0000 C   0  0  0  0  0  0  0  0  0  0  0  0
   -1.7321    0.0000    0.0000 C   0  0  0  0  0  0  0  0  0  0  0  0
   -0.8660   -0.5000    0.0000 C   0  0  0  0  0  0  0  0  0  0  0  0
    0.0000   -0.0000    0.0000 C   0  0  0  0  0  0  0  0  0  0  0  0
  1  2  1  0  0  0  0
  2  3  1  0  0  0  0
  3  4  1  0  0  0  0
  4  5  1  0  0  0  0
  5  6  1  6  0  0  0
  5  7  1  0  0  0  0
  5 15  1  0  0  0  0
  7  8  1  0  0  0  0
  8 13  1  0  0  0  0
  8  9  2  0  0  0  0
  9 10  1  0  0  0  0
 10 11  2  0  0  0  0
 11 12  1  0  0  0  0
 12 13  2  0  0  0  0
 13 14  1  0  0  0  0
 15 20  1  0  0  0  0
 15 16  2  0  0  0  0
 16 17  1  0  0  0  0
 17 18  2  0  0  0  0
 18 19  1  0  0  0  0
 19 20  2  0  0  0  0
M  END
$$$$

 OpenBabel10082008492D

 16 12  0  0  0  0  0  0  0  0999 V2000
    4.0000   -3.7321    0.0000 O   0  0  0  0  0  0  0  0  0  0  0  0
    4.5000   -2.8660    0.0000 C   0  0  0  0  0  0  0  0  0  0  0  0
    5.5000   -2.8660    0.0000 O   0  5  0  0  0  0  0  0  0  0  0  0
    4.0000   -2.0000    0.0000 C   0  0  0  0  0  0  0  0  0  0  0  0
    3.0000   -2.0000    0.0000 C   0  0  0  0  0  0  0  0  0  0  0  0
    3.0000   -3.0000    0.0000 O   0  0  0  0  0  0  0  0  0  0  0  0
    2.0000   -2.0000    0.0000 C   0  0  0  0  0  0  0  0  0  0  0  0
    1.5000   -2.8660    0.0000 C   0  0  0  0  0  0  0  0  0  0  0  0
    2.0000   -3.7321    0.0000 O   0  0  0  0  0  0  0  0  0  0  0  0
    0.5000   -2.8660    0.0000 O   0  5  0  0  0  0  0  0  0  0  0  0
    3.0000   -1.0000    0.0000 C   0  0  0  0  0  0  0  0  0  0  0  0
    2.1340   -0.5000    0.0000 O   0  0  0  0  0  0  0  0  0  0  0  0
    3.8660   -0.5000    0.0000 O   0  5  0  0  0  0  0  0  0  0  0  0
   -2.9040   -0.7952    0.0000 K   0  3  0  0  0 15  0  0  0  0  0  0
    6.5000   -0.5000    0.0000 K   0  3  0  0  0 15  0  0  0  0  0  0
    0.5000   -4.7321    0.0000 K   0  3  0  0  0 15  0  0  0  0  0  0
  1  2  2  0  0  0  0
  2  3  1  0  0  0  0
  2  4  1  0  0  0  0
  4  5  1  0  0  0  0
  5  6  1  0  0  0  0
  5  7  1  0  0  0  0
  5 11  1  0  0  0  0
  7  8  1  0  0  0  0
  8  9  2  0  0  0  0
  8 10  1  0  0  0  0
 11 12  2  0  0  0  0
 11 13  1  0  0  0  0
M  CHG  6   3  -1  10  -1  13  -1  14   1  15   1  16   1
M  END
$$$$

 OpenBabel10082008492D

 43 46  0  0  1  0  0  0  0  0999 V2000
    7.7107    5.7532    0.0000 C   0  0  0  0  0  0  0  0  0  0  0  0
    6.7653    6.0066    0.0000 C   0  0  0  0  0  0  0  0  0  0  0  0
    6.0733    5.3145    0.0000 C   0  0  0  0  0  0  0  0  0  0  0  0
    6.3266    4.3691    0.0000 C   0  0  1  0  0  0  0  0  0  0  0  0
    7.2969    4.2414    0.0000 C   0  0  0  0  0  0  0  0  0  0  0  0
    7.8927    5.0178    0.0000 C   0  0  0  0  0  0  0  0  0  0  0  0
    8.8631    4.8901    0.0000 C   0  0  0  0  0  0  0  0  0  0  0  0
    9.4589    5.6666    0.0000 C   0  0  0  0  0  0  0  0  0  0  0  0
   10.4292    5.5388    0.0000 C   0  0  0  0  0  0  0  0  0  0  0  0
   10.8038    4.6346    0.0000 C   0  0  0  0  0  0  0  0  0  0  0  0
   10.2080    3.8581    0.0000 C   0  0  0  0  0  0  0  0  0  0  0  0
    9.2376    3.9859    0.0000 C   0  0  0  0  0  0  0  0  0  0  0  0
    6.8159    3.5215    0.0000 C   0  0  0  0  0  0  0  0  0  0  0  0
    6.3266    2.6739    0.0000 C   0  0  0  0  0  0  0  0  0  0  0  0
    6.8159    1.8263    0.0000 O   0  0  0  0  0  0  0  0  0  0  0  0
    5.3478    2.6739    0.0000 C   0  0  0  0  0  0  0  0  0  0  0  0
    4.3691    0.9787    0.0000 C   0  0  2  0  0  0  0  0  0  0  0  0
    5.2167    0.4894    0.0000 H   0  0  0  0  0  0  0  0  0  0  0  0
    3.8798    0.1311    0.0000 C   0  0  0  0  0  0  0  0  0  0  0  0
    2.9010    0.1311    0.0000 C   0  0  0  0  0  0  0  0  0  0  0  0
    3.5215    1.4681    0.0000 C   0  0  0  0  0  0  0  0  0  0  0  0
    3.5215    2.4468    0.0000 C   0  0  0  0  0  0  0  0  0  0  0  0
    2.6739    2.9362    0.0000 C   0  0  0  0  0  0  0  0  0  0  0  0
    1.8263    2.4468    0.0000 C   0  0  0  0  0  0  0  0  0  0  0  0
    1.8263    1.4681    0.0000 C   0  0  0  0  0  0  0  0  0  0  0  0
    0.9787    0.9787    0.0000 N   0  0  0  0  0  0  0  0  0  0  0  0
    0.9787   -0.0000    0.0000 S   0  0  0  0  0  0  0  0  0  0  0  0
    1.9574   -0.0000    0.0000 O   0  0  0  0  0  0  0  0  0  0  0  0
    0.9787   -0.9787    0.0000 O   0  0  0  0  0  0  0  0  0  0  0  0
   -0.0000   -0.0000    0.0000 C   0  0  0  0  0  0  0  0  0  0  0  0
   -0.4894    0.8476    0.0000 C   0  0  0  0  0  0  0  0  0  0  0  0
   -1.4681    0.8476    0.0000 C   0  0  0  0  0  0  0  0  0  0  0  0
   -1.9574    0.0000    0.0000 C   0  0  0  0  0  0  0  0  0  0  0  0
   -2.9362   -0.0000    0.0000 C   0  0  0  0  0  0  0  0  0  0  0  0
   -3.7838    0.4894    0.0000 F   0  0  0  0  0  0  0  0  0  0  0  0
   -2.9362    0.9787    0.0000 F   0  0  0  0  0  0  0  0  0  0  0  0
   -3.4255   -0.8476    0.0000 F   0  0  0  0  0  0  0  0  0  0  0  0
   -1.4681   -0.8476    0.0000 C   0  0  0  0  0  0  0  0  0  0  0  0
   -0.4894   -0.8476    0.0000 N   0  0  0  0  0  0  0  0  0  0  0  0
    2.6739    0.9787    0.0000 C   0  0  0  0  0  0  0  0  0  0  0  0
    4.8585    3.5215    0.0000 C   0  0  0  0  0  0  0  0  0  0  0  0
    3.8798    3.5215    0.0000 O   0  0  0  0  0  0  0  0  0  0  0  0
    5.3478    4.3691    0.0000 O   0  0  0  0  0  0  0  0  0  0  0  0
  1  2  1  0  0  0  0
  2  3  1  0  0  0  0
  4  3  1  1  0  0  0
  4 43  1  0  0  0  0
  4  5  1  0  0  0  0
  4 13  1  0  0  0  0
  5  6  1  0  0  0  0
  6  7  1  0  0  0  0
  7 12  1  0  0  0  0
  7  8  2  0  0  0  0
  8  9  1  0  0  0  0
  9 10  2  0  0  0  0
 10 11  1  0  0  0  0
 11 12  2  0  0  0  0
 13 14  1  0  0  0  0
 14 15  1  0  0  0  0
 14 16  2  0  0  0  0
 16 17  1  0  0  0  0
 16 41  1  0  0  0  0
 17 18  1  1  0  0  0
 17 19  1  0  0  0  0
 17 21  1  0  0  0  0
 19 20  1  0  0  0  0
 21 40  1  0  0  0  0
 21 22  2  0  0  0  0
 22 23  1  0  0  0  0
 23 24  2  0  0  0  0
 24 25  1  0  0  0  0
 25 26  1  0  0  0  0
 25 40  2  0  0  0  0
 26 27  1  0  0  0  0
 27 28  2  0  0  0  0
 27 29  2  0  0  0  0
 27 30  1  0  0  0  0
 30 39  1  0  0  0  0
 30 31  2  0  0  0  0
 31 32  1  0  0  0  0
 32 33  2  0  0  0  0
 33 34  1  0  0  0  0
 33 38  1  0  0  0  0
 34 35  1  0  0  0  0
 34 36  1  0  0  0  0
 34 37  1  0  0  0  0
 38 39  2  0  0  0  0
 41 42  2  0  0  0  0
 41 43  1  0  0  0  0
M  END
$$$$

 OpenBabel10082008492D

 19 19  0  0  1  0  0  0  0  0999 V2000
    1.7321    3.0000    0.0000 C   0  0  0  0  0  0  0  0  0  0  0  0
    0.8660    3.5000    0.0000 C   0  0  0  0  0  0  0  0  0  0  0  0
   -0.0000    3.0000    0.0000 N   0  0  0  0  0  0  0  0  0  0  0  0
   -0.8660    3.5000    0.0000 C   0  0  0  0  0  0  0  0  0  0  0  0
   -0.0000    2.0000    0.0000 C   0  0  0  0  0  0  0  0  0  0  0  0
   -0.8660    1.5000    0.0000 O   0  0  0  0  0  0  0  0  0  0  0  0
    0.8660    1.5000    0.0000 O   0  0  0  0  0  0  0  0  0  0  0  0
    0.8660    0.5000    0.0000 C   0  0  0  0  0  0  0  0  0  0  0  0
    1.7321    0.0000    0.0000 C   0  0  0  0  0  0  0  0  0  0  0  0
    1.7321   -1.0000    0.0000 C   0  0  0  0  0  0  0  0  0  0  0  0
    0.8660   -1.5000    0.0000 C   0  0  0  0  0  0  0  0  0  0  0  0
    0.0000   -1.0000    0.0000 C   0  0  0  0  0  0  0  0  0  0  0  0
   -0.8660   -1.5000    0.0000 C   0  0  2  0  0  0  0  0  0  0  0  0
   -1.3660   -2.3660    0.0000 H   0  0  0  0  0  0  0  0  0  0  0  0
   -0.3660   -2.3660    0.0000 C   0  0  0  0  0  0  0  0  0  0  0  0
   -1.7321   -1.0000    0.0000 N   0  0  0  0  0  0  0  0  0  0  0  0
   -1.7321   -0.0000    0.0000 C   0  0  0  0  0  0  0  0  0  0  0  0
   -2.5981   -1.5000    0.0000 C   0  0  0  0  0  0  0  0  0  0  0  0
   -0.0000   -0.0000    0.0000 C   0  0  0  0  0  0  0  0  0  0  0  0
  1  2  1  0  0  0  0
  2  3  1  0  0  0  0
  3  4  1  0  0  0  0
  3  5  1  0  0  0  0
  5  6  2  0  0  0  0
  5  7  1  0  0  0  0
  7  8  1  0  0  0  0
  8 19  1  0  0  0  0
  8  9  2  0  0  0  0
  9 10  1  0  0  0  0
 10 11  2  0  0  0  0
 11 12  1  0  0  0  0
 12 13  1  0  0  0  0
 12 19  2  0  0  0  0
 13 14  1  1  0  0  0
 13 15  1  0  0  0  0
 13 16  1  0  0  0  0
 16 17  1  0  0  0  0
 16 18  1  0  0  0  0
M  END
$$$$

 OpenBabel10082008492D

 22 24  0  0  1  0  0  0  0  0999 V2000
    1.0000   -1.0000    0.0000 N   0  0  0  0  0  0  0  0  0  0  0  0
    1.0000   -0.0000    0.0000 S   0  0  0  0  0  0  0  0  0  0  0  0
    2.0000    0.0000    0.0000 O   0  0  0  0  0  0  0  0  0  0  0  0
    1.0000    1.0000    0.0000 O   0  0  0  0  0  0  0  0  0  0  0  0
    0.0000   -0.0000    0.0000 C   0  0  0  0  0  0  0  0  0  0  0  0
   -0.5000   -0.8660    0.0000 C   0  0  0  0  0  0  0  0  0  0  0  0
   -1.5000   -0.8660    0.0000 C   0  0  0  0  0  0  0  0  0  0  0  0
   -2.0000   -1.7321    0.0000 C   0  0  3  0  0  0  0  0  0  0  0  0
   -2.5000   -0.8660    0.0000 O   0  0  0  0  0  0  0  0  0  0  0  0
   -1.1910   -2.3198    0.0000 N   0  0  0  0  0  0  0  0  0  0  0  0
   -1.5000   -3.2709    0.0000 C   0  0  0  0  0  0  0  0  0  0  0  0
   -0.9122   -4.0799    0.0000 O   0  0  0  0  0  0  0  0  0  0  0  0
   -2.5000   -3.2709    0.0000 C   0  0  0  0  0  0  0  0  0  0  0  0
   -3.1691   -4.0140    0.0000 C   0  0  0  0  0  0  0  0  0  0  0  0
   -4.1473   -3.8061    0.0000 C   0  0  0  0  0  0  0  0  0  0  0  0
   -4.4563   -2.8551    0.0000 C   0  0  0  0  0  0  0  0  0  0  0  0
   -3.7872   -2.1119    0.0000 C   0  0  0  0  0  0  0  0  0  0  0  0
   -2.8090   -2.3198    0.0000 C   0  0  0  0  0  0  0  0  0  0  0  0
   -2.0000    0.0000    0.0000 C   0  0  0  0  0  0  0  0  0  0  0  0
   -1.5000    0.8660    0.0000 C   0  0  0  0  0  0  0  0  0  0  0  0
   -0.5000    0.8660    0.0000 C   0  0  0  0  0  0  0  0  0  0  0  0
    0.0000    1.7321    0.0000 Cl  0  0  0  0  0  0  0  0  0  0  0  0
  1  2  1  0  0  0  0
  2  3  2  0  0  0  0
  2  4  2  0  0  0  0
  2  5  1  0  0  0  0
  5 21  1  0  0  0  0
  5  6  2  0  0  0  0
  6  7  1  0  0  0  0
  7  8  1  0  0  0  0
  7 19  2  0  0  0  0
  8 18  1  0  0  0  0
  8  9  1  0  0  0  0
  8 10  1  0  0  0  0
 10 11  1  0  0  0  0
 11 12  2  0  0  0  0
 11 13  1  0  0  0  0
 13 18  1  0  0  0  0
 13 14  2  0  0  0  0
 14 15  1  0  0  0  0
 15 16  2  0  0  0  0
 16 17  1  0  0  0  0
 17 18  2  0  0  0  0
 19 20  1  0  0  0  0
 20 21  2  0  0  0  0
 21 22  1  0  0  0  0
M  END
$$$$

 OpenBabel10082008492D

 32 34  0  0  0  0  0  0  0  0999 V2000
   -3.0000   -1.0000    0.0000 C   0  0  0  0  0  0  0  0  0  0  0  0
   -2.5000   -1.8660    0.0000 C   0  0  0  0  0  0  0  0  0  0  0  0
   -1.5000   -1.8660    0.0000 C   0  0  0  0  0  0  0  0  0  0  0  0
   -1.0000   -1.0000    0.0000 N   0  0  0  0  0  0  0  0  0  0  0  0
   -0.0000   -1.0000    0.0000 S   0  0  0  0  0  0  0  0  0  0  0  0
   -0.0000   -2.0000    0.0000 O   0  0  0  0  0  0  0  0  0  0  0  0
    1.0000   -1.0000    0.0000 O   0  0  0  0  0  0  0  0  0  0  0  0
    0.0000   -0.0000    0.0000 N   0  0  0  0  0  0  0  0  0  0  0  0
    0.8660    0.5000    0.0000 C   0  0  0  0  0  0  0  0  0  0  0  0
    0.8660    1.5000    0.0000 N   0  0  0  0  0  0  0  0  0  0  0  0
    1.7321    2.0000    0.0000 C   0  0  0  0  0  0  0  0  0  0  0  0
    2.5981    1.5000    0.0000 N   0  0  0  0  0  0  0  0  0  0  0  0
    2.5981    0.5000    0.0000 C   0  0  0  0  0  0  0  0  0  0  0  0
    3.4641    0.0000    0.0000 O   0  0  0  0  0  0  0  0  0  0  0  0
    4.3301    0.5000    0.0000 C   0  0  0  0  0  0  0  0  0  0  0  0
    5.1962    0.0000    0.0000 C   0  0  0  0  0  0  0  0  0  0  0  0
    6.0622    0.5000    0.0000 O   0  0  0  0  0  0  0  0  0  0  0  0
    6.9282    0.0000    0.0000 C   0  0  0  0  0  0  0  0  0  0  0  0
    7.7942    0.5000    0.0000 N   0  0  0  0  0  0  0  0  0  0  0  0
    8.6603    0.0000    0.0000 C   0  0  0  0  0  0  0  0  0  0  0  0
    8.6603   -1.0000    0.0000 C   0  0  0  0  0  0  0  0  0  0  0  0
    9.5263   -1.5000    0.0000 Br  0  0  0  0  0  0  0  0  0  0  0  0
    7.7942   -1.5000    0.0000 C   0  0  0  0  0  0  0  0  0  0  0  0
    6.9282   -1.0000    0.0000 N   0  0  0  0  0  0  0  0  0  0  0  0
    1.7321    0.0000    0.0000 C   0  0  0  0  0  0  0  0  0  0  0  0
    1.7321   -1.0000    0.0000 C   0  0  0  0  0  0  0  0  0  0  0  0
    2.5981   -1.5000    0.0000 C   0  0  0  0  0  0  0  0  0  0  0  0
    2.5981   -2.5000    0.0000 C   0  0  0  0  0  0  0  0  0  0  0  0
    1.7321   -3.0000    0.0000 C   0  0  0  0  0  0  0  0  0  0  0  0
    1.7321   -4.0000    0.0000 Br  0  0  0  0  0  0  0  0  0  0  0  0
    0.8660   -2.5000    0.0000 C   0  0  0  0  0  0  0  0  0  0  0  0
    0.8660   -1.5000    0.0000 C   0  0  0  0  0  0  0  0  0  0  0  0
  1  2  1  0  0  0  0
  2  3  1  0  0  0  0
  3  4  1  0  0  0  0
  4  5  1  0  0  0  0
  5  6  2  0  0  0  0
  5  7  2  0  0  0  0
  5  8  1  0  0  0  0
  8  9  1  0  0  0  0
  9 25  1  0  0  0  0
  9 10  2  0  0  0  0
 10 11  1  0  0  0  0
 11 12  2  0  0  0  0
 12 13  1  0  0  0  0
 13 14  1  0  0  0  0
 13 25  2  0  0  0  0
 14 15  1  0  0  0  0
 15 16  1  0  0  0  0
 16 17  1  0  0  0  0
 17 18  1  0  0  0  0
 18 24  1  0  0  0  0
 18 19  2  0  0  0  0
 19 20  1  0  0  0  0
 20 21  2  0  0  0  0
 21 22  1  0  0  0  0
 21 23  1  0  0  0  0
 23 24  2  0  0  0  0
 25 26  1  0  0  0  0
 26 32  1  0  0  0  0
 26 27  2  0  0  0  0
 27 28  1  0  0  0  0
 28 29  2  0  0  0  0
 29 30  1  0  0  0  0
 29 31  1  0  0  0  0
 31 32  2  0  0  0  0
M  END
$$$$

 OpenBabel10082008492D

 18 18  0  0  1  0  0  0  0  0999 V2000
   -1.7321   -3.0000    0.0000 C   0  0  0  0  0  0  0  0  0  0  0  0
   -0.8660   -2.5000    0.0000 C   0  0  0  0  0  0  0  0  0  0  0  0
   -0.8660   -1.5000    0.0000 C   0  0  1  0  0  0  0  0  0  0  0  0
    0.1340   -1.5000    0.0000 H   0  0  0  0  0  0  0  0  0  0  0  0
   -0.8660   -0.5000    0.0000 C   0  0  0  0  0  0  0  0  0  0  0  0
   -1.7321   -0.0000    0.0000 C   0  0  0  0  0  0  0  0  0  0  0  0
   -1.7321    1.0000    0.0000 C   0  0  0  0  0  0  0  0  0  0  0  0
   -0.8660    1.5000    0.0000 C   0  0  0  0  0  0  0  0  0  0  0  0
   -0.0000    1.0000    0.0000 C   0  0  0  0  0  0  0  0  0  0  0  0
    0.8660    1.5000    0.0000 O   0  0  0  0  0  0  0  0  0  0  0  0
    0.0000    0.0000    0.0000 C   0  0  0  0  0  0  0  0  0  0  0  0
   -1.8660   -1.5000    0.0000 C   0  0  1  0  0  0  0  0  0  0  0  0
   -2.7321   -1.0000    0.0000 H   0  0  0  0  0  0  0  0  0  0  0  0
   -1.8660   -0.5000    0.0000 C   0  0  0  0  0  0  0  0  0  0  0  0
   -2.3660   -2.3660    0.0000 C   0  0  0  0  0  0  0  0  0  0  0  0
   -3.3660   -2.3660    0.0000 N   0  0  0  0  0  0  0  0  0  0  0  0
   -3.8660   -1.5000    0.0000 C   0  0  0  0  0  0  0  0  0  0  0  0
   -3.8660   -3.2321    0.0000 C   0  0  0  0  0  0  0  0  0  0  0  0
  1  2  1  0  0  0  0
  2  3  1  0  0  0  0
  3  4  1  1  0  0  0
  3  5  1  0  0  0  0
  3 12  1  0  0  0  0
  5 11  1  0  0  0  0
  5  6  2  0  0  0  0
  6  7  1  0  0  0  0
  7  8  2  0  0  0  0
  8  9  1  0  0  0  0
  9 10  1  0  0  0  0
  9 11  2  0  0  0  0
 12 13  1  1  0  0  0
 12 14  1  0  0  0  0
 12 15  1  0  0  0  0
 15 16  1  0  0  0  0
 16 17  1  0  0  0  0
 16 18  1  0  0  0  0
M  END
$$$$

 OpenBabel10082008492D

 20 22  0  0  1  0  0  0  0  0999 V2000
    1.8171   -2.8090    0.0000 N   0  0  0  0  0  0  0  0  0  0  0  0
    1.8171   -1.8090    0.0000 C   0  0  0  0  0  0  0  0  0  0  0  0
    2.6831   -1.3090    0.0000 C   0  0  0  0  0  0  0  0  0  0  0  0
    2.6831   -0.3090    0.0000 C   0  0  0  0  0  0  0  0  0  0  0  0
    1.8171    0.1910    0.0000 C   0  0  0  0  0  0  0  0  0  0  0  0
    0.9511   -0.3090    0.0000 C   0  0  0  0  0  0  0  0  0  0  0  0
    0.9511   -1.3090    0.0000 C   0  0  0  0  0  0  0  0  0  0  0  0
   -0.0000   -1.6180    0.0000 C   0  0  0  0  0  0  0  0  0  0  0  0
   -0.3090   -2.5691    0.0000 O   0  0  0  0  0  0  0  0  0  0  0  0
   -0.5878   -0.8090    0.0000 N   0  0  0  0  0  0  0  0  0  0  0  0
   -1.5878   -0.8090    0.0000 C   0  0  3  0  0  0  0  0  0  0  0  0
   -2.0878   -1.6750    0.0000 C   0  0  0  0  0  0  0  0  0  0  0  0
   -3.0878   -1.6750    0.0000 C   0  0  0  0  0  0  0  0  0  0  0  0
   -3.5878   -0.8090    0.0000 C   0  0  0  0  0  0  0  0  0  0  0  0
   -4.5878   -0.8090    0.0000 O   0  0  0  0  0  0  0  0  0  0  0  0
   -3.0878    0.0570    0.0000 N   0  0  0  0  0  0  0  0  0  0  0  0
   -2.0878    0.0570    0.0000 C   0  0  0  0  0  0  0  0  0  0  0  0
   -1.5878    0.9230    0.0000 O   0  0  0  0  0  0  0  0  0  0  0  0
    0.0000   -0.0000    0.0000 C   0  0  0  0  0  0  0  0  0  0  0  0
   -0.3090    0.9511    0.0000 O   0  0  0  0  0  0  0  0  0  0  0  0
  1  2  1  0  0  0  0
  2  7  1  0  0  0  0
  2  3  2  0  0  0  0
  3  4  1  0  0  0  0
  4  5  2  0  0  0  0
  5  6  1  0  0  0  0
  6 19  1  0  0  0  0
  6  7  2  0  0  0  0
  7  8  1  0  0  0  0
  8  9  2  0  0  0  0
  8 10  1  0  0  0  0
 10 11  1  0  0  0  0
 10 19  1  0  0  0  0
 11 17  1  0  0  0  0
 11 12  1  0  0  0  0
 12 13  1  0  0  0  0
 13 14  1  0  0  0  0
 14 15  2  0  0  0  0
 14 16  1  0  0  0  0
 16 17  1  0  0  0  0
 17 18  2  0  0  0  0
 19 20  2  0  0  0  0
M  END
$$$$

 OpenBabel10082008492D

 33 35  0  0  0  0  0  0  0  0999 V2000
   -2.5981    1.5000    0.0000 C   0  0  0  0  0  0  0  0  0  0  0  0
   -2.5981    0.5000    0.0000 N   0  0  0  0  0  0  0  0  0  0  0  0
   -1.7321    0.0000    0.0000 C   0  0  0  0  0  0  0  0  0  0  0  0
   -1.7321   -1.0000    0.0000 O   0  0  0  0  0  0  0  0  0  0  0  0
   -0.8660    0.5000    0.0000 C   0  0  0  0  0  0  0  0  0  0  0  0
   -0.8660    1.5000    0.0000 C   0  0  0  0  0  0  0  0  0  0  0  0
    0.0000    2.0000    0.0000 C   0  0  0  0  0  0  0  0  0  0  0  0
    0.0000    3.0000    0.0000 O   0  0  0  0  0  0  0  0  0  0  0  0
    0.8660    3.5000    0.0000 C   0  0  0  0  0  0  0  0  0  0  0  0
    0.8660    4.5000    0.0000 C   0  0  0  0  0  0  0  0  0  0  0  0
    1.7321    5.0000    0.0000 C   0  0  0  0  0  0  0  0  0  0  0  0
    2.5981    4.5000    0.0000 C   0  0  0  0  0  0  0  0  0  0  0  0
    3.4641    5.0000    0.0000 N   0  0  0  0  0  0  0  0  0  0  0  0
    4.3301    4.5000    0.0000 C   0  0  0  0  0  0  0  0  0  0  0  0
    4.3301    3.5000    0.0000 O   0  0  0  0  0  0  0  0  0  0  0  0
    5.1962    5.0000    0.0000 N   0  0  0  0  0  0  0  0  0  0  0  0
    6.0622    4.5000    0.0000 C   0  0  0  0  0  0  0  0  0  0  0  0
    6.9282    5.0000    0.0000 C   0  0  0  0  0  0  0  0  0  0  0  0
    7.7942    4.5000    0.0000 C   0  0  0  0  0  0  0  0  0  0  0  0
    7.7942    3.5000    0.0000 C   0  0  0  0  0  0  0  0  0  0  0  0
    8.6603    3.0000    0.0000 Cl  0  0  0  0  0  0  0  0  0  0  0  0
    6.9282    3.0000    0.0000 C   0  0  0  0  0  0  0  0  0  0  0  0
    6.9282    2.0000    0.0000 C   0  0  0  0  0  0  0  0  0  0  0  0
    7.4282    1.1340    0.0000 F   0  0  0  0  0  0  0  0  0  0  0  0
    7.9282    2.0000    0.0000 F   0  0  0  0  0  0  0  0  0  0  0  0
    6.0622    1.5000    0.0000 F   0  0  0  0  0  0  0  0  0  0  0  0
    6.0622    3.5000    0.0000 C   0  0  0  0  0  0  0  0  0  0  0  0
    2.5981    3.5000    0.0000 C   0  0  0  0  0  0  0  0  0  0  0  0
    3.4641    3.0000    0.0000 F   0  0  0  0  0  0  0  0  0  0  0  0
    1.7321    3.0000    0.0000 C   0  0  0  0  0  0  0  0  0  0  0  0
    0.8660    1.5000    0.0000 C   0  0  0  0  0  0  0  0  0  0  0  0
    0.8660    0.5000    0.0000 C   0  0  0  0  0  0  0  0  0  0  0  0
    0.0000   -0.0000    0.0000 N   0  0  0  0  0  0  0  0  0  0  0  0
  1  2  1  0  0  0  0
  2  3  1  0  0  0  0
  3  4  2  0  0  0  0
  3  5  1  0  0  0  0
  5 33  1  0  0  0  0
  5  6  2  0  0  0  0
  6  7  1  0  0  0  0
  7  8  1  0  0  0  0
  7 31  2  0  0  0  0
  8  9  1  0  0  0  0
  9 30  1  0  0  0  0
  9 10  2  0  0  0  0
 10 11  1  0  0  0  0
 11 12  2  0  0  0  0
 12 13  1  0  0  0  0
 12 28  1  0  0  0  0
 13 14  1  0  0  0  0
 14 15  2  0  0  0  0
 14 16  1  0  0  0  0
 16 17  1  0  0  0  0
 17 27  1  0  0  0  0
 17 18  2  0  0  0  0
 18 19  1  0  0  0  0
 19 20  2  0  0  0  0
 20 21  1  0  0  0  0
 20 22  1  0  0  0  0
 22 23  1  0  0  0  0
 22 27  2  0  0  0  0
 23 24  1  0  0  0  0
 23 25  1  0  0  0  0
 23 26  1  0  0  0  0
 28 29  1  0  0  0  0
 28 30  2  0  0  0  0
 31 32  1  0  0  0  0
 32 33  2  0  0  0  0
M  END
$$$$

 OpenBabel10082008492D

 31 35  0  0  1  0  0  0  0  0999 V2000
   -3.4641    0.0000    0.0000 C   0  0  0  0  0  0  0  0  0  0  0  0
   -2.5981   -0.5000    0.0000 C   0  0  0  0  0  0  0  0  0  0  0  0
   -1.7321    0.0000    0.0000 N   0  0  0  0  0  0  0  0  0  0  0  0
   -0.8660   -0.5000    0.0000 C   0  0  0  0  0  0  0  0  0  0  0  0
   -0.8660   -1.5000    0.0000 N   0  0  0  0  0  0  0  0  0  0  0  0
   -1.7321   -2.0000    0.0000 C   0  0  0  0  0  0  0  0  0  0  0  0
   -1.7321   -3.0000    0.0000 O   0  0  0  0  0  0  0  0  0  0  0  0
   -2.5981   -1.5000    0.0000 C   0  0  0  0  0  0  0  0  0  0  0  0
   -3.4641   -2.0000    0.0000 C   0  0  0  0  0  0  0  0  0  0  0  0
   -4.3301   -1.5000    0.0000 C   0  0  0  0  0  0  0  0  0  0  0  0
   -5.1962   -2.0000    0.0000 N   0  0  0  0  0  0  0  0  0  0  0  0
   -5.1962   -3.0000    0.0000 C   0  0  0  0  0  0  0  0  0  0  0  0
   -6.0622   -3.5000    0.0000 C   0  0  0  0  0  0  0  0  0  0  0  0
   -6.9282   -3.0000    0.0000 C   0  0  3  0  0  0  0  0  0  0  0  0
   -7.7942   -3.5000    0.0000 C   0  0  0  0  0  0  0  0  0  0  0  0
   -7.8988   -4.4945    0.0000 N   0  0  0  0  0  0  0  0  0  0  0  0
   -8.8769   -4.7024    0.0000 O   0  0  0  0  0  0  0  0  0  0  0  0
   -9.3769   -3.8364    0.0000 C   0  0  0  0  0  0  0  0  0  0  0  0
  -10.3551   -3.6285    0.0000 C   0  0  0  0  0  0  0  0  0  0  0  0
  -10.6641   -2.6774    0.0000 C   0  0  0  0  0  0  0  0  0  0  0  0
  -11.6422   -2.4695    0.0000 F   0  0  0  0  0  0  0  0  0  0  0  0
   -9.9949   -1.9343    0.0000 C   0  0  0  0  0  0  0  0  0  0  0  0
   -9.0168   -2.1422    0.0000 C   0  0  0  0  0  0  0  0  0  0  0  0
   -8.7078   -3.0933    0.0000 C   0  0  0  0  0  0  0  0  0  0  0  0
   -6.9282   -2.0000    0.0000 C   0  0  0  0  0  0  0  0  0  0  0  0
   -6.0622   -1.5000    0.0000 C   0  0  0  0  0  0  0  0  0  0  0  0
   -0.0000   -2.0000    0.0000 C   0  0  0  0  0  0  0  0  0  0  0  0
    0.8660   -1.5000    0.0000 C   0  0  0  0  0  0  0  0  0  0  0  0
    0.8660   -0.5000    0.0000 C   0  0  0  0  0  0  0  0  0  0  0  0
    0.0000   -0.0000    0.0000 C   0  0  3  0  0  0  0  0  0  0  0  0
    0.0000    1.0000    0.0000 O   0  0  0  0  0  0  0  0  0  0  0  0
  1  2  1  0  0  0  0
  2  8  2  0  0  0  0
  2  3  1  0  0  0  0
  3  4  2  0  0  0  0
  4 30  1  0  0  0  0
  4  5  1  0  0  0  0
  5  6  1  0  0  0  0
  5 27  1  0  0  0  0
  6  7  2  0  0  0  0
  6  8  1  0  0  0  0
  8  9  1  0  0  0  0
  9 10  1  0  0  0  0
 10 11  1  0  0  0  0
 11 26  1  0  0  0  0
 11 12  1  0  0  0  0
 12 13  1  0  0  0  0
 13 14  1  0  0  0  0
 14 15  1  0  0  0  0
 14 25  1  0  0  0  0
 15 24  1  0  0  0  0
 15 16  2  0  0  0  0
 16 17  1  0  0  0  0
 17 18  1  0  0  0  0
 18 24  1  0  0  0  0
 18 19  2  0  0  0  0
 19 20  1  0  0  0  0
 20 21  1  0  0  0  0
 20 22  2  0  0  0  0
 22 23  1  0  0  0  0
 23 24  2  0  0  0  0
 25 26  1  0  0  0  0
 27 28  1  0  0  0  0
 28 29  1  0  0  0  0
 29 30  1  0  0  0  0
 30 31  1  0  0  0  0
M  END
$$$$

 OpenBabel10082008492D

 30 32  0  0  1  0  0  0  0  0999 V2000
   -1.6750   -2.0878    0.0000 C   0  0  0  0  0  0  0  0  0  0  0  0
   -0.8090   -1.5878    0.0000 C   0  0  3  0  0  0  0  0  0  0  0  0
    0.0570   -2.0878    0.0000 O   0  0  0  0  0  0  0  0  0  0  0  0
   -0.8090   -0.5878    0.0000 C   0  0  0  0  0  0  0  0  0  0  0  0
   -1.6180    0.0000    0.0000 C   0  0  0  0  0  0  0  0  0  0  0  0
   -1.3090    0.9511    0.0000 C   0  0  0  0  0  0  0  0  0  0  0  0
   -1.8968    1.7601    0.0000 C   0  0  0  0  0  0  0  0  0  0  0  0
   -1.4901    2.6736    0.0000 O   0  0  0  0  0  0  0  0  0  0  0  0
   -2.8913    1.6555    0.0000 N   0  0  0  0  0  0  0  0  0  0  0  0
   -3.2981    0.7420    0.0000 C   0  0  1  0  0  0  0  0  0  0  0  0
   -3.1935   -0.2525    0.0000 H   0  0  0  0  0  0  0  0  0  0  0  0
   -2.3845    0.3353    0.0000 C   0  0  0  0  0  0  0  0  0  0  0  0
   -4.2926    0.6375    0.0000 C   0  0  0  0  0  0  0  0  0  0  0  0
   -4.6993   -0.2761    0.0000 N   0  0  0  0  0  0  0  0  0  0  0  0
   -4.1993   -1.1421    0.0000 C   0  0  0  0  0  0  0  0  0  0  0  0
   -4.8684   -1.8852    0.0000 C   0  0  0  0  0  0  0  0  0  0  0  0
   -5.7820   -1.4785    0.0000 C   0  0  0  0  0  0  0  0  0  0  0  0
   -6.6480   -1.9785    0.0000 C   0  0  0  0  0  0  0  0  0  0  0  0
   -6.6480   -2.9785    0.0000 C   0  0  0  0  0  0  0  0  0  0  0  0
   -7.5140   -3.4785    0.0000 C   0  0  0  0  0  0  0  0  0  0  0  0
   -8.3801   -2.9785    0.0000 C   0  0  0  0  0  0  0  0  0  0  0  0
   -9.2461   -3.4785    0.0000 C   0  0  0  0  0  0  0  0  0  0  0  0
  -10.1121   -3.9785    0.0000 N   0  0  0  0  0  0  0  0  0  0  0  0
   -8.3801   -1.9785    0.0000 C   0  0  0  0  0  0  0  0  0  0  0  0
   -9.2461   -1.4785    0.0000 Cl  0  0  0  0  0  0  0  0  0  0  0  0
   -7.5140   -1.4785    0.0000 C   0  0  0  0  0  0  0  0  0  0  0  0
   -5.6775   -0.4840    0.0000 N   0  0  0  0  0  0  0  0  0  0  0  0
   -0.3090    0.9511    0.0000 N   0  0  0  0  0  0  0  0  0  0  0  0
    0.0000    0.0000    0.0000 N   0  0  0  0  0  0  0  0  0  0  0  0
    0.9511   -0.3090    0.0000 H   0  0  0  0  0  0  0  0  0  0  0  0
  1  2  1  0  0  0  0
  2  3  1  0  0  0  0
  2  4  1  0  0  0  0
  4 29  1  0  0  0  0
  4  5  2  0  0  0  0
  5  6  1  0  0  0  0
  6  7  1  0  0  0  0
  6 28  2  0  0  0  0
  7  8  2  0  0  0  0
  7  9  1  0  0  0  0
  9 10  1  0  0  0  0
 10 11  1  6  0  0  0
 10 12  1  0  0  0  0
 10 13  1  0  0  0  0
 13 14  1  0  0  0  0
 14 27  1  0  0  0  0
 14 15  1  0  0  0  0
 15 16  2  0  0  0  0
 16 17  1  0  0  0  0
 17 18  1  0  0  0  0
 17 27  2  0  0  0  0
 18 26  1  0  0  0  0
 18 19  2  0  0  0  0
 19 20  1  0  0  0  0
 20 21  2  0  0  0  0
 21 22  1  0  0  0  0
 21 24  1  0  0  0  0
 22 23  3  0  0  0  0
 24 25  1  0  0  0  0
 24 26  2  0  0  0  0
 28 29  1  0  0  0  0
 29 30  1  0  0  0  0
M  END
$$$$

 OpenBabel10082008492D

 23 25  0  0  1  0  0  0  0  0999 V2000
   -1.8781   -3.1622    0.0000 C   0  0  0  0  0  0  0  0  0  0  0  0
   -0.9000   -2.9543    0.0000 N   0  0  0  0  0  0  0  0  0  0  0  0
   -0.2308   -3.6974    0.0000 C   0  0  0  0  0  0  0  0  0  0  0  0
   -0.5909   -2.0032    0.0000 C   0  0  0  0  0  0  0  0  0  0  0  0
   -1.2601   -1.2601    0.0000 C   0  0  0  0  0  0  0  0  0  0  0  0
   -0.9511   -0.3090    0.0000 C   0  0  0  0  0  0  0  0  0  0  0  0
   -1.5388    0.5000    0.0000 C   0  0  0  0  0  0  0  0  0  0  0  0
   -0.9511    1.3090    0.0000 N   0  0  0  0  0  0  0  0  0  0  0  0
   -1.2601    2.2601    0.0000 H   0  0  0  0  0  0  0  0  0  0  0  0
   -0.0000    1.0000    0.0000 C   0  0  0  0  0  0  0  0  0  0  0  0
    0.8660    1.5000    0.0000 C   0  0  0  0  0  0  0  0  0  0  0  0
    1.7321    1.0000    0.0000 C   0  0  0  0  0  0  0  0  0  0  0  0
    1.7321    0.0000    0.0000 C   0  0  0  0  0  0  0  0  0  0  0  0
    2.5981   -0.5000    0.0000 C   0  0  0  0  0  0  0  0  0  0  0  0
    3.4641   -0.0000    0.0000 C   0  0  1  0  0  0  0  0  0  0  0  0
    3.1464    0.9482    0.0000 H   0  0  0  0  0  0  0  0  0  0  0  0
    4.2412    0.6293    0.0000 C   0  0  0  0  0  0  0  0  0  0  0  0
    5.0799    0.0847    0.0000 O   0  0  0  0  0  0  0  0  0  0  0  0
    4.8211   -0.8812    0.0000 C   0  0  0  0  0  0  0  0  0  0  0  0
    5.4504   -1.6584    0.0000 O   0  0  0  0  0  0  0  0  0  0  0  0
    3.8225   -0.9336    0.0000 N   0  0  0  0  0  0  0  0  0  0  0  0
    0.8660   -0.5000    0.0000 C   0  0  0  0  0  0  0  0  0  0  0  0
    0.0000    0.0000    0.0000 C   0  0  0  0  0  0  0  0  0  0  0  0
  1  2  1  0  0  0  0
  2  3  1  0  0  0  0
  2  4  1  0  0  0  0
  4  5  1  0  0  0  0
  5  6  1  0  0  0  0
  6 23  1  0  0  0  0
  6  7  2  0  0  0  0
  7  8  1  0  0  0  0
  8  9  1  0  0  0  0
  8 10  1  0  0  0  0
 10 23  1  0  0  0  0
 10 11  2  0  0  0  0
 11 12  1  0  0  0  0
 12 13  2  0  0  0  0
 13 14  1  0  0  0  0
 13 22  1  0  0  0  0
 14 15  1  0  0  0  0
 15 16  1  6  0  0  0
 15 21  1  0  0  0  0
 15 17  1  0  0  0  0
 17 18  1  0  0  0  0
 18 19  1  0  0  0  0
 19 20  2  0  0  0  0
 19 21  1  0  0  0  0
 22 23  2  0  0  0  0
M  END
$$$$

 OpenBabel10082008492D

 23 24  0  0  1  0  0  0  0  0999 V2000
    0.1340   -1.5000    0.0000 C   0  0  0  0  0  0  0  0  0  0  0  0
    1.0000   -1.0000    0.0000 C   0  0  0  0  0  0  0  0  0  0  0  0
    1.0000    0.0000    0.0000 N   0  3  0  0  0  0  0  0  0  0  0  0
    2.0000    0.0000    0.0000 C   0  0  0  0  0  0  0  0  0  0  0  0
    2.5000    0.8660    0.0000 C   0  0  0  0  0  0  0  0  0  0  0  0
    1.0000    1.0000    0.0000 C   0  0  0  0  0  0  0  0  0  0  0  0
    0.1340    1.5000    0.0000 C   0  0  0  0  0  0  0  0  0  0  0  0
    0.0000    0.0000    0.0000 C   0  0  0  0  0  0  0  0  0  0  0  0
   -0.5000    0.8660    0.0000 C   0  0  0  0  0  0  0  0  0  0  0  0
   -1.5000    0.8660    0.0000 C   0  0  3  0  0  0  0  0  0  0  0  0
   -1.5000    1.8660    0.0000 O   0  0  0  0  0  0  0  0  0  0  0  0
   -2.5000    0.8660    0.0000 C   0  0  0  0  0  0  0  0  0  0  0  0
   -3.0000   -0.0000    0.0000 C   0  0  0  0  0  0  0  0  0  0  0  0
   -4.0000   -0.0000    0.0000 C   0  0  0  0  0  0  0  0  0  0  0  0
   -4.5000    0.8660    0.0000 C   0  0  0  0  0  0  0  0  0  0  0  0
   -4.0000    1.7321    0.0000 C   0  0  0  0  0  0  0  0  0  0  0  0
   -3.0000    1.7321    0.0000 C   0  0  0  0  0  0  0  0  0  0  0  0
   -1.5000   -0.1340    0.0000 C   0  0  0  0  0  0  0  0  0  0  0  0
   -0.6340   -0.6340    0.0000 C   0  0  0  0  0  0  0  0  0  0  0  0
   -0.6340   -1.6340    0.0000 C   0  0  0  0  0  0  0  0  0  0  0  0
   -1.5000   -2.1340    0.0000 C   0  0  0  0  0  0  0  0  0  0  0  0
   -2.3660   -1.6340    0.0000 C   0  0  0  0  0  0  0  0  0  0  0  0
   -2.3660   -0.6340    0.0000 C   0  0  0  0  0  0  0  0  0  0  0  0
  1  2  1  0  0  0  0
  2  3  1  0  0  0  0
  3  4  1  0  0  0  0
  3  6  1  0  0  0  0
  3  8  1  0  0  0  0
  4  5  1  0  0  0  0
  6  7  1  0  0  0  0
  8  9  1  0  0  0  0
  9 10  1  0  0  0  0
 10 11  1  0  0  0  0
 10 12  1  0  0  0  0
 10 18  1  0  0  0  0
 12 17  1  0  0  0  0
 12 13  2  0  0  0  0
 13 14  1  0  0  0  0
 14 15  2  0  0  0  0
 15 16  1  0  0  0  0
 16 17  2  0  0  0  0
 18 23  1  0  0  0  0
 18 19  1  0  0  0  0
 19 20  1  0  0  0  0
 20 21  1  0  0  0  0
 21 22  1  0  0  0  0
 22 23  1  0  0  0  0
M  CHG  1   3   1
M  END
$$$$

 OpenBabel10082008492D

  7  6  0  0  0  0  0  0  0  0999 V2000
    1.0000   -1.0000    0.0000 O   0  0  0  0  0  0  0  0  0  0  0  0
    1.0000   -0.0000    0.0000 S   0  0  0  0  0  0  0  0  0  0  0  0
    2.0000    0.0000    0.0000 O   0  0  0  0  0  0  0  0  0  0  0  0
    1.0000    1.0000    0.0000 O   0  0  0  0  0  0  0  0  0  0  0  0
    0.0000    0.0000    0.0000 C   0  0  0  0  0  0  0  0  0  0  0  0
   -0.5000    0.8660    0.0000 C   0  0  0  0  0  0  0  0  0  0  0  0
   -1.5000    0.8660    0.0000 S   0  0  0  0  0  0  0  0  0  0  0  0
  1  2  2  0  0  0  0
  2  3  2  0  0  0  0
  2  4  1  0  0  0  0
  2  5  1  0  0  0  0
  5  6  1  0  0  0  0
  6  7  1  0  0  0  0
M  END
$$$$

 OpenBabel10082008492D

 32 34  0  0  1  0  0  0  0  0999 V2000
    5.1962   -2.0000    0.0000 C   0  0  0  0  0  0  0  0  0  0  0  0
    4.3301   -1.5000    0.0000 O   0  0  0  0  0  0  0  0  0  0  0  0
    3.4641   -2.0000    0.0000 C   0  0  0  0  0  0  0  0  0  0  0  0
    3.4641   -3.0000    0.0000 C   0  0  0  0  0  0  0  0  0  0  0  0
    2.5981   -3.5000    0.0000 C   0  0  0  0  0  0  0  0  0  0  0  0
    2.5981   -4.5000    0.0000 N   0  0  0  0  0  0  0  0  0  0  0  0
    1.7321   -3.0000    0.0000 C   0  0  0  0  0  0  0  0  0  0  0  0
    0.8660   -3.5000    0.0000 Cl  0  0  0  0  0  0  0  0  0  0  0  0
    1.7321   -2.0000    0.0000 C   0  0  0  0  0  0  0  0  0  0  0  0
    2.5981   -1.5000    0.0000 C   0  0  0  0  0  0  0  0  0  0  0  0
    2.5981   -0.5000    0.0000 C   0  0  0  0  0  0  0  0  0  0  0  0
    3.4641    0.0000    0.0000 O   0  0  0  0  0  0  0  0  0  0  0  0
    1.7321    0.0000    0.0000 N   0  0  0  0  0  0  0  0  0  0  0  0
    0.8660   -0.5000    0.0000 C   0  0  3  0  0  0  0  0  0  0  0  0
    0.8660   -1.5000    0.0000 C   0  0  0  0  0  0  0  0  0  0  0  0
    0.0000   -2.0000    0.0000 C   0  0  0  0  0  0  0  0  0  0  0  0
   -0.8660   -1.5000    0.0000 N   0  0  0  0  0  0  0  0  0  0  0  0
   -1.7321   -2.0000    0.0000 C   0  0  0  0  0  0  0  0  0  0  0  0
   -1.7321   -3.0000    0.0000 C   0  0  0  0  0  0  0  0  0  0  0  0
   -2.5981   -3.5000    0.0000 C   0  0  0  0  0  0  0  0  0  0  0  0
   -2.5981   -4.5000    0.0000 O   0  0  0  0  0  0  0  0  0  0  0  0
   -3.4641   -5.0000    0.0000 C   0  0  0  0  0  0  0  0  0  0  0  0
   -3.4641   -6.0000    0.0000 C   0  0  0  0  0  0  0  0  0  0  0  0
   -4.3301   -6.5000    0.0000 C   0  0  0  0  0  0  0  0  0  0  0  0
   -5.1962   -6.0000    0.0000 C   0  0  0  0  0  0  0  0  0  0  0  0
   -6.0622   -6.5000    0.0000 F   0  0  0  0  0  0  0  0  0  0  0  0
   -5.1962   -5.0000    0.0000 C   0  0  0  0  0  0  0  0  0  0  0  0
   -4.3301   -4.5000    0.0000 C   0  0  0  0  0  0  0  0  0  0  0  0
   -0.8660   -0.5000    0.0000 C   0  0  0  0  0  0  0  0  0  0  0  0
   -0.0000   -0.0000    0.0000 C   0  0  3  0  0  0  0  0  0  0  0  0
   -0.0000    1.0000    0.0000 O   0  0  0  0  0  0  0  0  0  0  0  0
   -0.8660    1.5000    0.0000 C   0  0  0  0  0  0  0  0  0  0  0  0
  1  2  1  0  0  0  0
  2  3  1  0  0  0  0
  3 10  1  0  0  0  0
  3  4  2  0  0  0  0
  4  5  1  0  0  0  0
  5  6  1  0  0  0  0
  5  7  2  0  0  0  0
  7  8  1  0  0  0  0
  7  9  1  0  0  0  0
  9 10  2  0  0  0  0
 10 11  1  0  0  0  0
 11 12  2  0  0  0  0
 11 13  1  0  0  0  0
 13 14  1  0  0  0  0
 14 30  1  0  0  0  0
 14 15  1  0  0  0  0
 15 16  1  0  0  0  0
 16 17  1  0  0  0  0
 17 18  1  0  0  0  0
 17 29  1  0  0  0  0
 18 19  1  0  0  0  0
 19 20  1  0  0  0  0
 20 21  1  0  0  0  0
 21 22  1  0  0  0  0
 22 28  1  0  0  0  0
 22 23  2  0  0  0  0
 23 24  1  0  0  0  0
 24 25  2  0  0  0  0
 25 26  1  0  0  0  0
 25 27  1  0  0  0  0
 27 28  2  0  0  0  0
 29 30  1  0  0  0  0
 30 31  1  0  0  0  0
 31 32  1  0  0  0  0
M  END
$$$$

 OpenBabel10082008492D

 41 45  0  0  0  0  0  0  0  0999 V2000
   -5.5000   -0.1340    0.0000 C   0  0  0  0  0  0  0  0  0  0  0  0
   -4.5000   -0.1340    0.0000 O   0  0  0  0  0  0  0  0  0  0  0  0
   -4.0000   -1.0000    0.0000 C   0  0  0  0  0  0  0  0  0  0  0  0
   -3.0000   -1.0000    0.0000 C   0  0  0  0  0  0  0  0  0  0  0  0
   -2.5000   -1.8660    0.0000 C   0  0  0  0  0  0  0  0  0  0  0  0
   -1.5000   -1.8660    0.0000 C   0  0  0  0  0  0  0  0  0  0  0  0
   -1.0000   -2.7321    0.0000 O   0  0  0  0  0  0  0  0  0  0  0  0
   -1.0000   -1.0000    0.0000 N   0  0  0  0  0  0  0  0  0  0  0  0
   -0.0000   -1.0000    0.0000 S   0  0  0  0  0  0  0  0  0  0  0  0
   -0.0000   -2.0000    0.0000 O   0  0  0  0  0  0  0  0  0  0  0  0
    1.0000   -1.0000    0.0000 O   0  0  0  0  0  0  0  0  0  0  0  0
   -0.0000   -0.0000    0.0000 C   0  0  0  0  0  0  0  0  0  0  0  0
   -0.8660    0.5000    0.0000 C   0  0  0  0  0  0  0  0  0  0  0  0
   -0.8660    1.5000    0.0000 C   0  0  0  0  0  0  0  0  0  0  0  0
   -0.0000    2.0000    0.0000 C   0  0  0  0  0  0  0  0  0  0  0  0
    0.8660    1.5000    0.0000 C   0  0  0  0  0  0  0  0  0  0  0  0
    0.8660    0.5000    0.0000 C   0  0  0  0  0  0  0  0  0  0  0  0
    1.7321    0.0000    0.0000 C   0  0  0  0  0  0  0  0  0  0  0  0
   -3.0000   -2.7321    0.0000 C   0  0  0  0  0  0  0  0  0  0  0  0
   -4.0000   -2.7321    0.0000 C   0  0  0  0  0  0  0  0  0  0  0  0
   -4.5000   -1.8660    0.0000 C   0  0  0  0  0  0  0  0  0  0  0  0
   -5.5000   -1.8660    0.0000 C   0  0  0  0  0  0  0  0  0  0  0  0
   -6.0000   -2.7321    0.0000 C   0  0  0  0  0  0  0  0  0  0  0  0
   -5.5933   -3.6456    0.0000 C   0  0  0  0  0  0  0  0  0  0  0  0
   -6.3364   -4.3147    0.0000 N   0  0  0  0  0  0  0  0  0  0  0  0
   -6.2319   -5.3092    0.0000 C   0  0  0  0  0  0  0  0  0  0  0  0
   -7.2024   -3.8147    0.0000 C   0  0  0  0  0  0  0  0  0  0  0  0
   -8.1535   -4.1237    0.0000 C   0  0  0  0  0  0  0  0  0  0  0  0
   -8.8966   -3.4546    0.0000 C   0  0  0  0  0  0  0  0  0  0  0  0
   -8.6887   -2.4765    0.0000 C   0  0  0  0  0  0  0  0  0  0  0  0
   -9.4319   -1.8073    0.0000 N   0  0  0  0  0  0  0  0  0  0  0  0
   -9.2240   -0.8292    0.0000 C   0  0  0  0  0  0  0  0  0  0  0  0
   -8.2729   -0.5202    0.0000 O   0  0  0  0  0  0  0  0  0  0  0  0
   -9.9671   -0.1601    0.0000 O   0  0  0  0  0  0  0  0  0  0  0  0
   -9.7592    0.8181    0.0000 C   0  0  0  0  0  0  0  0  0  0  0  0
  -10.4283    1.5612    0.0000 C   0  0  0  0  0  0  0  0  0  0  0  0
   -9.9283    2.4273    0.0000 C   0  0  0  0  0  0  0  0  0  0  0  0
   -8.9502    2.2193    0.0000 C   0  0  0  0  0  0  0  0  0  0  0  0
   -8.8456    1.2248    0.0000 C   0  0  0  0  0  0  0  0  0  0  0  0
   -7.7377   -2.1674    0.0000 C   0  0  0  0  0  0  0  0  0  0  0  0
   -6.9945   -2.8366    0.0000 C   0  0  0  0  0  0  0  0  0  0  0  0
  1  2  1  0  0  0  0
  2  3  1  0  0  0  0
  3 21  1  0  0  0  0
  3  4  2  0  0  0  0
  4  5  1  0  0  0  0
  5  6  1  0  0  0  0
  5 19  2  0  0  0  0
  6  7  2  0  0  0  0
  6  8  1  0  0  0  0
  8  9  1  0  0  0  0
  9 10  2  0  0  0  0
  9 11  2  0  0  0  0
  9 12  1  0  0  0  0
 12 17  1  0  0  0  0
 12 13  2  0  0  0  0
 13 14  1  0  0  0  0
 14 15  2  0  0  0  0
 15 16  1  0  0  0  0
 16 17  2  0  0  0  0
 17 18  1  0  0  0  0
 19 20  1  0  0  0  0
 20 21  2  0  0  0  0
 21 22  1  0  0  0  0
 22 23  1  0  0  0  0
 23 41  1  0  0  0  0
 23 24  2  0  0  0  0
 24 25  1  0  0  0  0
 25 26  1  0  0  0  0
 25 27  1  0  0  0  0
 27 41  1  0  0  0  0
 27 28  2  0  0  0  0
 28 29  1  0  0  0  0
 29 30  2  0  0  0  0
 30 31  1  0  0  0  0
 30 40  1  0  0  0  0
 31 32  1  0  0  0  0
 32 33  2  0  0  0  0
 32 34  1  0  0  0  0
 34 35  1  0  0  0  0
 35 39  1  0  0  0  0
 35 36  1  0  0  0  0
 36 37  1  0  0  0  0
 37 38  1  0  0  0  0
 38 39  1  0  0  0  0
 40 41  2  0  0  0  0
M  END
$$$$

 OpenBabel10082008492D

 36 38  0  0  1  0  0  0  0  0999 V2000
   -4.4591    4.7631    0.0000 C   0  0  0  0  0  0  0  0  0  0  0  0
   -5.2681    4.1753    0.0000 C   0  0  0  0  0  0  0  0  0  0  0  0
   -5.1636    3.1808    0.0000 C   0  0  0  0  0  0  0  0  0  0  0  0
   -4.2976    2.6808    0.0000 C   0  0  0  0  0  0  0  0  0  0  0  0
   -3.3840    3.0875    0.0000 C   0  0  0  0  0  0  0  0  0  0  0  0
   -4.5055    1.7026    0.0000 C   0  0  0  0  0  0  0  0  0  0  0  0
   -5.5000    1.5981    0.0000 N   0  0  0  0  0  0  0  0  0  0  0  0
   -6.0000    0.7321    0.0000 C   0  0  0  0  0  0  0  0  0  0  0  0
   -7.0000    0.7321    0.0000 O   0  0  0  0  0  0  0  0  0  0  0  0
   -5.5000   -0.1340    0.0000 N   0  0  0  0  0  0  0  0  0  0  0  0
   -4.5000   -0.1340    0.0000 C   0  0  0  0  0  0  0  0  0  0  0  0
   -4.0000   -1.0000    0.0000 C   0  0  0  0  0  0  0  0  0  0  0  0
   -3.0000   -1.0000    0.0000 C   0  0  0  0  0  0  0  0  0  0  0  0
   -2.5000   -0.1340    0.0000 C   0  0  0  0  0  0  0  0  0  0  0  0
   -1.5000   -0.1340    0.0000 C   0  0  0  0  0  0  0  0  0  0  0  0
   -1.0000   -1.0000    0.0000 C   0  0  0  0  0  0  0  0  0  0  0  0
    0.0000   -1.0000    0.0000 S   0  0  0  0  0  0  0  0  0  0  0  0
    0.0000   -2.0000    0.0000 O   0  0  0  0  0  0  0  0  0  0  0  0
    1.0000   -1.0000    0.0000 O   0  0  0  0  0  0  0  0  0  0  0  0
    0.0000   -0.0000    0.0000 N   0  0  0  0  0  0  0  0  0  0  0  0
    0.8660    0.5000    0.0000 C   0  0  0  0  0  0  0  0  0  0  0  0
    1.7321   -0.0000    0.0000 O   0  0  0  0  0  0  0  0  0  0  0  0
    0.8660    1.5000    0.0000 N   0  0  0  0  0  0  0  0  0  0  0  0
    1.7321    2.0000    0.0000 C   0  0  1  0  0  0  0  0  0  0  0  0
    1.6015    2.9914    0.0000 H   0  0  0  0  0  0  0  0  0  0  0  0
    2.4392    2.7071    0.0000 C   0  0  0  0  0  0  0  0  0  0  0  0
    3.4051    2.4483    0.0000 C   0  0  0  0  0  0  0  0  0  0  0  0
    3.6639    1.4824    0.0000 C   0  0  2  0  0  0  0  0  0  0  0  0
    4.3710    0.7753    0.0000 H   0  0  0  0  0  0  0  0  0  0  0  0
    4.6298    1.7412    0.0000 C   0  0  0  0  0  0  0  0  0  0  0  0
    2.9568    0.7753    0.0000 C   0  0  0  0  0  0  0  0  0  0  0  0
    1.9909    1.0341    0.0000 C   0  0  0  0  0  0  0  0  0  0  0  0
   -1.5000   -1.8660    0.0000 C   0  0  0  0  0  0  0  0  0  0  0  0
   -2.5000   -1.8660    0.0000 C   0  0  0  0  0  0  0  0  0  0  0  0
   -5.9067    2.5116    0.0000 C   0  0  0  0  0  0  0  0  0  0  0  0
   -6.8849    2.7195    0.0000 O   0  0  0  0  0  0  0  0  0  0  0  0
  1  2  1  0  0  0  0
  2  3  1  0  0  0  0
  3 35  1  0  0  0  0
  3  4  2  0  0  0  0
  4  5  1  0  0  0  0
  4  6  1  0  0  0  0
  6  7  1  0  0  0  0
  7  8  1  0  0  0  0
  7 35  1  0  0  0  0
  8  9  2  0  0  0  0
  8 10  1  0  0  0  0
 10 11  1  0  0  0  0
 11 12  1  0  0  0  0
 12 13  1  0  0  0  0
 13 34  1  0  0  0  0
 13 14  2  0  0  0  0
 14 15  1  0  0  0  0
 15 16  2  0  0  0  0
 16 17  1  0  0  0  0
 16 33  1  0  0  0  0
 17 18  2  0  0  0  0
 17 19  2  0  0  0  0
 17 20  1  0  0  0  0
 20 21  1  0  0  0  0
 21 22  2  0  0  0  0
 21 23  1  0  0  0  0
 23 24  1  0  0  0  0
 24 25  1  6  0  0  0
 24 32  1  0  0  0  0
 24 26  1  0  0  0  0
 26 27  1  0  0  0  0
 27 28  1  0  0  0  0
 28 29  1  1  0  0  0
 28 30  1  0  0  0  0
 28 31  1  0  0  0  0
 31 32  1  0  0  0  0
 33 34  2  0  0  0  0
 35 36  2  0  0  0  0
M  END
$$$$

 OpenBabel10082008492D

 15 16  0  0  1  0  0  0  0  0999 V2000
    1.7601    0.2788    0.0000 C   0  0  0  0  0  0  0  0  0  0  0  0
    0.9511   -0.3090    0.0000 N   0  0  0  0  0  0  0  0  0  0  0  0
    0.9511   -1.3090    0.0000 C   0  0  0  0  0  0  0  0  0  0  0  0
    1.7601   -1.8968    0.0000 O   0  0  0  0  0  0  0  0  0  0  0  0
    0.0000   -1.6180    0.0000 C   0  0  0  0  0  0  0  0  0  0  0  0
   -0.5878   -0.8090    0.0000 C   0  0  3  0  0  0  0  0  0  0  0  0
   -1.4538   -0.3090    0.0000 C   0  0  0  0  0  0  0  0  0  0  0  0
   -1.4538   -1.3090    0.0000 C   0  0  0  0  0  0  0  0  0  0  0  0
   -1.4538   -2.3090    0.0000 C   0  0  0  0  0  0  0  0  0  0  0  0
   -2.3198   -2.8090    0.0000 C   0  0  0  0  0  0  0  0  0  0  0  0
   -3.1859   -2.3090    0.0000 C   0  0  0  0  0  0  0  0  0  0  0  0
   -3.1859   -1.3090    0.0000 C   0  0  0  0  0  0  0  0  0  0  0  0
   -2.3198   -0.8090    0.0000 C   0  0  0  0  0  0  0  0  0  0  0  0
    0.0000   -0.0000    0.0000 C   0  0  0  0  0  0  0  0  0  0  0  0
   -0.3090    0.9511    0.0000 O   0  0  0  0  0  0  0  0  0  0  0  0
  1  2  1  0  0  0  0
  2 14  1  0  0  0  0
  2  3  1  0  0  0  0
  3  4  2  0  0  0  0
  3  5  1  0  0  0  0
  5  6  1  0  0  0  0
  6  7  1  0  0  0  0
  6  8  1  0  0  0  0
  6 14  1  0  0  0  0
  8 13  1  0  0  0  0
  8  9  2  0  0  0  0
  9 10  1  0  0  0  0
 10 11  2  0  0  0  0
 11 12  1  0  0  0  0
 12 13  2  0  0  0  0
 14 15  2  0  0  0  0
M  END
$$$$

 OpenBabel10082008492D

 34 37  0  0  0  0  0  0  0  0999 V2000
   -5.0623   -0.1503    0.0000 C   0  0  0  0  0  0  0  0  0  0  0  0
   -6.0134    0.1587    0.0000 C   0  0  0  0  0  0  0  0  0  0  0  0
   -6.2213    1.1369    0.0000 C   0  0  0  0  0  0  0  0  0  0  0  0
   -5.4781    1.8060    0.0000 C   0  0  0  0  0  0  0  0  0  0  0  0
   -5.5827    2.8005    0.0000 N   0  0  0  0  0  0  0  0  0  0  0  0
   -4.6691    3.2072    0.0000 N   0  0  0  0  0  0  0  0  0  0  0  0
   -4.4612    4.1854    0.0000 C   0  0  0  0  0  0  0  0  0  0  0  0
   -4.0000    2.4641    0.0000 C   0  0  0  0  0  0  0  0  0  0  0  0
   -3.0000    2.4641    0.0000 C   0  0  0  0  0  0  0  0  0  0  0  0
   -2.5000    3.3301    0.0000 O   0  0  0  0  0  0  0  0  0  0  0  0
   -2.5000    1.5981    0.0000 N   0  0  0  0  0  0  0  0  0  0  0  0
   -1.5000    1.5981    0.0000 H   0  0  0  0  0  0  0  0  0  0  0  0
   -3.0000    0.7321    0.0000 C   0  0  0  0  0  0  0  0  0  0  0  0
   -2.5000   -0.1340    0.0000 C   0  0  0  0  0  0  0  0  0  0  0  0
   -1.5000   -0.1340    0.0000 C   0  0  0  0  0  0  0  0  0  0  0  0
   -1.0000   -1.0000    0.0000 C   0  0  0  0  0  0  0  0  0  0  0  0
    0.0000   -1.0000    0.0000 S   0  0  0  0  0  0  0  0  0  0  0  0
    0.0000   -2.0000    0.0000 O   0  0  0  0  0  0  0  0  0  0  0  0
    1.0000   -1.0000    0.0000 O   0  0  0  0  0  0  0  0  0  0  0  0
   -0.0000   -0.0000    0.0000 N   0  0  0  0  0  0  0  0  0  0  0  0
   -0.8660    0.5000    0.0000 C   0  0  0  0  0  0  0  0  0  0  0  0
   -0.8660    1.5000    0.0000 C   0  0  0  0  0  0  0  0  0  0  0  0
    0.0000    2.0000    0.0000 N   0  0  0  0  0  0  0  0  0  0  0  0
    0.0000    3.0000    0.0000 C   0  0  0  0  0  0  0  0  0  0  0  0
    0.8660    1.5000    0.0000 C   0  0  0  0  0  0  0  0  0  0  0  0
    0.8660    0.5000    0.0000 C   0  0  0  0  0  0  0  0  0  0  0  0
   -1.5000   -1.8660    0.0000 C   0  0  0  0  0  0  0  0  0  0  0  0
   -2.5000   -1.8660    0.0000 C   0  0  0  0  0  0  0  0  0  0  0  0
   -3.0000   -1.0000    0.0000 C   0  0  0  0  0  0  0  0  0  0  0  0
   -4.0000   -1.0000    0.0000 O   0  0  0  0  0  0  0  0  0  0  0  0
   -4.5000   -1.8660    0.0000 C   0  0  0  0  0  0  0  0  0  0  0  0
   -5.5000   -1.8660    0.0000 C   0  0  0  0  0  0  0  0  0  0  0  0
   -4.0000    0.7321    0.0000 N   0  0  0  0  0  0  0  0  0  0  0  0
   -4.5000    1.5981    0.0000 C   0  0  0  0  0  0  0  0  0  0  0  0
  1  2  1  0  0  0  0
  2  3  1  0  0  0  0
  3  4  1  0  0  0  0
  4 34  1  0  0  0  0
  4  5  2  0  0  0  0
  5  6  1  0  0  0  0
  6  7  1  0  0  0  0
  6  8  1  0  0  0  0
  8 34  2  0  0  0  0
  8  9  1  0  0  0  0
  9 10  2  0  0  0  0
  9 11  1  0  0  0  0
 11 12  1  0  0  0  0
 11 13  1  0  0  0  0
 13 14  1  0  0  0  0
 13 33  2  0  0  0  0
 14 29  1  0  0  0  0
 14 15  2  0  0  0  0
 15 16  1  0  0  0  0
 16 17  1  0  0  0  0
 16 27  2  0  0  0  0
 17 18  2  0  0  0  0
 17 19  2  0  0  0  0
 17 20  1  0  0  0  0
 20 26  1  0  0  0  0
 20 21  1  0  0  0  0
 21 22  1  0  0  0  0
 22 23  1  0  0  0  0
 23 24  1  0  0  0  0
 23 25  1  0  0  0  0
 25 26  1  0  0  0  0
 27 28  1  0  0  0  0
 28 29  2  0  0  0  0
 29 30  1  0  0  0  0
 30 31  1  0  0  0  0
 31 32  1  0  0  0  0
 33 34  1  0  0  0  0
M  END
$$$$

 OpenBabel10082008492D

 19 20  0  0  0  0  0  0  0  0999 V2000
    5.3301    2.5000    0.0000 C   0  0  0  0  0  0  0  0  0  0  0  0
    4.4641    3.0000    0.0000 O   0  0  0  0  0  0  0  0  0  0  0  0
    3.5981    2.5000    0.0000 C   0  0  0  0  0  0  0  0  0  0  0  0
    3.5981    1.5000    0.0000 C   0  0  0  0  0  0  0  0  0  0  0  0
    2.7321    1.0000    0.0000 N   0  0  0  0  0  0  0  0  0  0  0  0
    1.8660    1.5000    0.0000 C   0  0  0  0  0  0  0  0  0  0  0  0
    1.0000    1.0000    0.0000 N   0  0  0  0  0  0  0  0  0  0  0  0
    1.0000   -0.0000    0.0000 S   0  0  0  0  0  0  0  0  0  0  0  0
    2.0000    0.0000    0.0000 O   0  0  0  0  0  0  0  0  0  0  0  0
    1.0000   -1.0000    0.0000 O   0  0  0  0  0  0  0  0  0  0  0  0
   -0.0000   -0.0000    0.0000 C   0  0  0  0  0  0  0  0  0  0  0  0
   -0.5000    0.8660    0.0000 C   0  0  0  0  0  0  0  0  0  0  0  0
   -1.5000    0.8660    0.0000 C   0  0  0  0  0  0  0  0  0  0  0  0
   -2.0000    0.0000    0.0000 C   0  0  0  0  0  0  0  0  0  0  0  0
   -3.0000    0.0000    0.0000 N   0  0  0  0  0  0  0  0  0  0  0  0
   -1.5000   -0.8660    0.0000 C   0  0  0  0  0  0  0  0  0  0  0  0
   -0.5000   -0.8660    0.0000 C   0  0  0  0  0  0  0  0  0  0  0  0
    1.8660    2.5000    0.0000 N   0  0  0  0  0  0  0  0  0  0  0  0
    2.7321    3.0000    0.0000 C   0  0  0  0  0  0  0  0  0  0  0  0
  1  2  1  0  0  0  0
  2  3  1  0  0  0  0
  3 19  1  0  0  0  0
  3  4  2  0  0  0  0
  4  5  1  0  0  0  0
  5  6  2  0  0  0  0
  6  7  1  0  0  0  0
  6 18  1  0  0  0  0
  7  8  1  0  0  0  0
  8  9  2  0  0  0  0
  8 10  2  0  0  0  0
  8 11  1  0  0  0  0
 11 17  1  0  0  0  0
 11 12  2  0  0  0  0
 12 13  1  0  0  0  0
 13 14  2  0  0  0  0
 14 15  1  0  0  0  0
 14 16  1  0  0  0  0
 16 17  2  0  0  0  0
 18 19  2  0  0  0  0
M  END
$$$$

 OpenBabel10082008492D

 19 20  0  0  0  0  0  0  0  0999 V2000
    0.8660   -1.5000    0.0000 C   0  0  0  0  0  0  0  0  0  0  0  0
   -0.0000   -1.0000    0.0000 C   0  0  0  0  0  0  0  0  0  0  0  0
   -0.8660   -1.5000    0.0000 C   0  0  0  0  0  0  0  0  0  0  0  0
   -1.7321   -1.0000    0.0000 C   0  0  0  0  0  0  0  0  0  0  0  0
   -1.7321    0.0000    0.0000 C   0  0  0  0  0  0  0  0  0  0  0  0
   -2.5981    0.5000    0.0000 C   0  0  0  0  0  0  0  0  0  0  0  0
   -2.5981    1.5000    0.0000 O   0  0  0  0  0  0  0  0  0  0  0  0
   -3.4641    0.0000    0.0000 C   0  0  0  0  0  0  0  0  0  0  0  0
   -3.5686   -0.9945    0.0000 C   0  0  0  0  0  0  0  0  0  0  0  0
   -4.5468   -1.2024    0.0000 C   0  0  0  0  0  0  0  0  0  0  0  0
   -5.0468   -0.3364    0.0000 C   0  0  0  0  0  0  0  0  0  0  0  0
   -6.0413   -0.2319    0.0000 C   0  0  0  0  0  0  0  0  0  0  0  0
   -6.6291   -1.0409    0.0000 C   0  0  0  0  0  0  0  0  0  0  0  0
   -7.6236   -0.9364    0.0000 O   0  0  0  0  0  0  0  0  0  0  0  0
   -6.2223   -1.9544    0.0000 O   0  0  0  0  0  0  0  0  0  0  0  0
   -4.3776    0.4067    0.0000 N   0  0  0  0  0  0  0  0  0  0  0  0
   -4.5856    1.3849    0.0000 C   0  0  0  0  0  0  0  0  0  0  0  0
   -0.8660    0.5000    0.0000 C   0  0  0  0  0  0  0  0  0  0  0  0
   -0.0000   -0.0000    0.0000 C   0  0  0  0  0  0  0  0  0  0  0  0
  1  2  1  0  0  0  0
  2 19  1  0  0  0  0
  2  3  2  0  0  0  0
  3  4  1  0  0  0  0
  4  5  2  0  0  0  0
  5  6  1  0  0  0  0
  5 18  1  0  0  0  0
  6  7  2  0  0  0  0
  6  8  1  0  0  0  0
  8 16  1  0  0  0  0
  8  9  2  0  0  0  0
  9 10  1  0  0  0  0
 10 11  2  0  0  0  0
 11 12  1  0  0  0  0
 11 16  1  0  0  0  0
 12 13  1  0  0  0  0
 13 14  2  0  0  0  0
 13 15  1  0  0  0  0
 16 17  1  0  0  0  0
 18 19  2  0  0  0  0
M  END
$$$$

 OpenBabel10082008492D

 32 35  0  0  1  0  0  0  0  0999 V2000
    4.3301   -1.5000    0.0000 C   0  0  0  0  0  0  0  0  0  0  0  0
    3.4641   -2.0000    0.0000 C   0  0  0  0  0  0  0  0  0  0  0  0
    3.4641   -3.0000    0.0000 C   0  0  0  0  0  0  0  0  0  0  0  0
    2.5981   -3.5000    0.0000 C   0  0  0  0  0  0  0  0  0  0  0  0
    1.7321   -3.0000    0.0000 C   0  0  0  0  0  0  0  0  0  0  0  0
    1.7321   -2.0000    0.0000 C   0  0  0  0  0  0  0  0  0  0  0  0
    2.5981   -1.5000    0.0000 C   0  0  0  0  0  0  0  0  0  0  0  0
    2.5981   -0.5000    0.0000 C   0  0  0  0  0  0  0  0  0  0  0  0
    3.4641    0.0000    0.0000 O   0  0  0  0  0  0  0  0  0  0  0  0
    1.7321   -0.0000    0.0000 N   0  0  0  0  0  0  0  0  0  0  0  0
    0.8660   -0.5000    0.0000 C   0  0  0  0  0  0  0  0  0  0  0  0
    0.8660   -1.5000    0.0000 C   0  0  0  0  0  0  0  0  0  0  0  0
    0.0000   -2.0000    0.0000 C   0  0  0  0  0  0  0  0  0  0  0  0
   -0.8660   -1.5000    0.0000 C   0  0  0  0  0  0  0  0  0  0  0  0
   -1.7321   -2.0000    0.0000 C   0  0  0  0  0  0  0  0  0  0  0  0
   -2.5981   -1.5000    0.0000 O   0  0  0  0  0  0  0  0  0  0  0  0
   -1.7321   -3.0000    0.0000 N   0  0  0  0  0  0  0  0  0  0  0  0
   -0.8311   -3.4339    0.0000 C   0  0  0  0  0  0  0  0  0  0  0  0
   -0.6086   -4.4088    0.0000 C   0  0  0  0  0  0  0  0  0  0  0  0
   -1.2321   -5.1906    0.0000 C   0  0  0  0  0  0  0  0  0  0  0  0
   -2.2321   -5.1906    0.0000 C   0  0  3  0  0  0  0  0  0  0  0  0
   -2.6659   -6.0916    0.0000 O   0  0  0  0  0  0  0  0  0  0  0  0
   -2.8555   -4.4088    0.0000 C   0  0  0  0  0  0  0  0  0  0  0  0
   -3.8111   -4.7036    0.0000 C   0  0  0  0  0  0  0  0  0  0  0  0
   -4.5442   -4.0234    0.0000 C   0  0  0  0  0  0  0  0  0  0  0  0
   -5.4997   -4.3181    0.0000 Cl  0  0  0  0  0  0  0  0  0  0  0  0
   -4.3216   -3.0485    0.0000 C   0  0  0  0  0  0  0  0  0  0  0  0
   -3.3661   -2.7537    0.0000 C   0  0  0  0  0  0  0  0  0  0  0  0
   -2.6330   -3.4339    0.0000 C   0  0  0  0  0  0  0  0  0  0  0  0
   -0.8660   -0.5000    0.0000 C   0  0  0  0  0  0  0  0  0  0  0  0
   -1.7321   -0.0000    0.0000 C   0  0  0  0  0  0  0  0  0  0  0  0
    0.0000   -0.0000    0.0000 C   0  0  0  0  0  0  0  0  0  0  0  0
  1  2  1  0  0  0  0
  2  7  1  0  0  0  0
  2  3  2  0  0  0  0
  3  4  1  0  0  0  0
  4  5  2  0  0  0  0
  5  6  1  0  0  0  0
  6  7  2  0  0  0  0
  7  8  1  0  0  0  0
  8  9  2  0  0  0  0
  8 10  1  0  0  0  0
 10 11  1  0  0  0  0
 11 32  1  0  0  0  0
 11 12  2  0  0  0  0
 12 13  1  0  0  0  0
 13 14  2  0  0  0  0
 14 15  1  0  0  0  0
 14 30  1  0  0  0  0
 15 16  2  0  0  0  0
 15 17  1  0  0  0  0
 17 29  1  0  0  0  0
 17 18  1  0  0  0  0
 18 19  1  0  0  0  0
 19 20  1  0  0  0  0
 20 21  1  0  0  0  0
 21 22  1  0  0  0  0
 21 23  1  0  0  0  0
 23 29  1  0  0  0  0
 23 24  2  0  0  0  0
 24 25  1  0  0  0  0
 25 26  1  0  0  0  0
 25 27  2  0  0  0  0
 27 28  1  0  0  0  0
 28 29  2  0  0  0  0
 30 31  1  0  0  0  0
 30 32  2  0  0  0  0
M  END
$$$$

 OpenBabel10082008492D

 21 23  0  0  0  0  0  0  0  0999 V2000
   -3.4641   -3.0000    0.0000 C   0  0  0  0  0  0  0  0  0  0  0  0
   -2.5981   -3.5000    0.0000 N   0  0  0  0  0  0  0  0  0  0  0  0
   -2.5981   -4.5000    0.0000 C   0  0  0  0  0  0  0  0  0  0  0  0
   -1.7321   -3.0000    0.0000 C   0  0  0  0  0  0  0  0  0  0  0  0
   -1.7321   -2.0000    0.0000 C   0  0  0  0  0  0  0  0  0  0  0  0
   -0.8660   -1.5000    0.0000 C   0  0  0  0  0  0  0  0  0  0  0  0
   -0.8660   -0.5000    0.0000 C   0  0  0  0  0  0  0  0  0  0  0  0
   -0.0000   -0.0000    0.0000 C   0  0  0  0  0  0  0  0  0  0  0  0
    0.8660   -0.5000    0.0000 C   0  0  0  0  0  0  0  0  0  0  0  0
    1.7321   -0.0000    0.0000 C   0  0  0  0  0  0  0  0  0  0  0  0
    1.7321    1.0000    0.0000 C   0  0  0  0  0  0  0  0  0  0  0  0
    0.8660    1.5000    0.0000 C   0  0  0  0  0  0  0  0  0  0  0  0
   -0.0000    1.0000    0.0000 C   0  0  0  0  0  0  0  0  0  0  0  0
   -0.8660    1.5000    0.0000 S   0  0  0  0  0  0  0  0  0  0  0  0
   -1.7321    1.0000    0.0000 C   0  0  0  0  0  0  0  0  0  0  0  0
   -2.5981    1.5000    0.0000 C   0  0  0  0  0  0  0  0  0  0  0  0
   -3.4641    1.0000    0.0000 C   0  0  0  0  0  0  0  0  0  0  0  0
   -3.4641    0.0000    0.0000 C   0  0  0  0  0  0  0  0  0  0  0  0
   -4.3301   -0.5000    0.0000 Cl  0  0  0  0  0  0  0  0  0  0  0  0
   -2.5981   -0.5000    0.0000 C   0  0  0  0  0  0  0  0  0  0  0  0
   -1.7321    0.0000    0.0000 C   0  0  0  0  0  0  0  0  0  0  0  0
  1  2  1  0  0  0  0
  2  3  1  0  0  0  0
  2  4  1  0  0  0  0
  4  5  1  0  0  0  0
  5  6  1  0  0  0  0
  6  7  2  0  0  0  0
  7 21  1  0  0  0  0
  7  8  1  0  0  0  0
  8 13  1  0  0  0  0
  8  9  2  0  0  0  0
  9 10  1  0  0  0  0
 10 11  2  0  0  0  0
 11 12  1  0  0  0  0
 12 13  2  0  0  0  0
 13 14  1  0  0  0  0
 14 15  1  0  0  0  0
 15 21  1  0  0  0  0
 15 16  2  0  0  0  0
 16 17  1  0  0  0  0
 17 18  2  0  0  0  0
 18 19  1  0  0  0  0
 18 20  1  0  0  0  0
 20 21  2  0  0  0  0
M  END
$$$$

 OpenBabel10082008492D

 19 20  0  0  1  0  0  0  0  0999 V2000
   -2.5133   -0.1804    0.0000 C   0  0  0  0  0  0  0  0  0  0  0  0
   -1.5934   -0.4269    0.0000 O   0  0  0  0  0  0  0  0  0  0  0  0
   -0.9199    0.2465    0.0000 C   0  0  0  0  0  0  0  0  0  0  0  0
   -1.1664    1.1664    0.0000 C   0  0  0  0  0  0  0  0  0  0  0  0
   -0.4930    1.8399    0.0000 C   0  0  0  0  0  0  0  0  0  0  0  0
    0.4269    1.5934    0.0000 C   0  0  0  0  0  0  0  0  0  0  0  0
    0.6734    0.6734    0.0000 C   0  0  0  0  0  0  0  0  0  0  0  0
    2.5133    0.1804    0.0000 C   0  0  3  0  0  0  0  0  0  0  0  0
    2.6376   -0.7638    0.0000 O   0  0  0  0  0  0  0  0  0  0  0  0
    3.3381   -0.2957    0.0000 C   0  0  0  0  0  0  0  0  0  0  0  0
    4.1629    0.1804    0.0000 C   0  0  0  0  0  0  0  0  0  0  0  0
    4.1629    1.1328    0.0000 C   0  0  0  0  0  0  0  0  0  0  0  0
    3.3381    1.6090    0.0000 C   0  0  0  0  0  0  0  0  0  0  0  0
    2.5133    1.1328    0.0000 C   0  0  3  0  0  0  0  0  0  0  0  0
    1.6885    1.6090    0.0000 C   0  0  0  0  0  0  0  0  0  0  0  0
    1.6885    2.5614    0.0000 N   0  0  0  0  0  0  0  0  0  0  0  0
    2.5133    3.0376    0.0000 C   0  0  0  0  0  0  0  0  0  0  0  0
    0.8637    3.0376    0.0000 C   0  0  0  0  0  0  0  0  0  0  0  0
    0.0000   -0.0000    0.0000 C   0  0  0  0  0  0  0  0  0  0  0  0
  1  2  1  0  0  0  0
  2  3  1  0  0  0  0
  3 19  1  0  0  0  0
  3  4  2  0  0  0  0
  4  5  1  0  0  0  0
  5  6  2  0  0  0  0
  6  7  1  0  0  0  0
  7  8  1  0  0  0  0
  7 19  2  0  0  0  0
  8 14  1  0  0  0  0
  8  9  1  0  0  0  0
  8 10  1  0  0  0  0
 10 11  1  0  0  0  0
 11 12  1  0  0  0  0
 12 13  1  0  0  0  0
 13 14  1  0  0  0  0
 14 15  1  0  0  0  0
 15 16  1  0  0  0  0
 16 17  1  0  0  0  0
 16 18  1  0  0  0  0
M  END
$$$$

 OpenBabel10082008492D

 32 35  0  0  1  0  0  0  0  0999 V2000
    1.1248    0.4659    0.0000 C   0  0  0  0  0  0  0  0  0  0  0  0
    0.8660   -0.5000    0.0000 C   0  0  2  0  0  0  0  0  0  0  0  0
    1.6594   -1.1088    0.0000 H   0  0  0  0  0  0  0  0  0  0  0  0
    0.8660   -1.5000    0.0000 C   0  0  0  0  0  0  0  0  0  0  0  0
    0.0000   -2.0000    0.0000 C   0  0  0  0  0  0  0  0  0  0  0  0
   -0.8660   -1.5000    0.0000 O   0  0  0  0  0  0  0  0  0  0  0  0
   -0.8660   -0.5000    0.0000 C   0  0  1  0  0  0  0  0  0  0  0  0
   -1.7321   -1.0000    0.0000 H   0  0  0  0  0  0  0  0  0  0  0  0
   -1.7321   -0.0000    0.0000 C   0  0  0  0  0  0  0  0  0  0  0  0
   -1.7321    1.0000    0.0000 N   0  0  0  0  0  0  0  0  0  0  0  0
   -2.5981    1.5000    0.0000 C   0  0  0  0  0  0  0  0  0  0  0  0
   -2.5981    2.5000    0.0000 C   0  0  0  0  0  0  0  0  0  0  0  0
   -3.4641    3.0000    0.0000 C   0  0  0  0  0  0  0  0  0  0  0  0
   -3.4641    4.0000    0.0000 O   0  0  0  0  0  0  0  0  0  0  0  0
   -4.3301    2.5000    0.0000 N   0  0  0  0  0  0  0  0  0  0  0  0
   -4.3301    1.5000    0.0000 C   0  0  0  0  0  0  0  0  0  0  0  0
   -5.1962    1.0000    0.0000 C   0  0  0  0  0  0  0  0  0  0  0  0
   -5.1962   -0.0000    0.0000 C   0  0  0  0  0  0  0  0  0  0  0  0
   -6.0622   -0.5000    0.0000 C   0  0  0  0  0  0  0  0  0  0  0  0
   -6.9282   -0.0000    0.0000 C   0  0  0  0  0  0  0  0  0  0  0  0
   -7.7942   -0.5000    0.0000 F   0  0  0  0  0  0  0  0  0  0  0  0
   -6.9282    1.0000    0.0000 C   0  0  0  0  0  0  0  0  0  0  0  0
   -6.0622    1.5000    0.0000 C   0  0  0  0  0  0  0  0  0  0  0  0
   -6.0622    2.5000    0.0000 F   0  0  0  0  0  0  0  0  0  0  0  0
   -1.7321    3.0000    0.0000 C   0  0  0  0  0  0  0  0  0  0  0  0
   -1.7321    4.0000    0.0000 O   0  0  0  0  0  0  0  0  0  0  0  0
   -0.8660    2.5000    0.0000 C   0  0  0  0  0  0  0  0  0  0  0  0
   -0.0000    3.0000    0.0000 O   0  0  0  0  0  0  0  0  0  0  0  0
   -0.8660    1.5000    0.0000 C   0  0  0  0  0  0  0  0  0  0  0  0
   -0.0000    1.0000    0.0000 C   0  0  0  0  0  0  0  0  0  0  0  0
    0.8660    1.5000    0.0000 O   0  0  0  0  0  0  0  0  0  0  0  0
    0.0000   -0.0000    0.0000 N   0  0  0  0  0  0  0  0  0  0  0  0
  1  2  1  0  0  0  0
  2  3  1  1  0  0  0
  2 32  1  0  0  0  0
  2  4  1  0  0  0  0
  4  5  1  0  0  0  0
  5  6  1  0  0  0  0
  6  7  1  0  0  0  0
  7  8  1  6  0  0  0
  7 32  1  0  0  0  0
  7  9  1  0  0  0  0
  9 10  1  0  0  0  0
 10 29  1  0  0  0  0
 10 11  1  0  0  0  0
 11 12  2  0  0  0  0
 12 13  1  0  0  0  0
 12 25  1  0  0  0  0
 13 14  2  0  0  0  0
 13 15  1  0  0  0  0
 15 16  1  0  0  0  0
 16 17  1  0  0  0  0
 17 23  1  0  0  0  0
 17 18  2  0  0  0  0
 18 19  1  0  0  0  0
 19 20  2  0  0  0  0
 20 21  1  0  0  0  0
 20 22  1  0  0  0  0
 22 23  2  0  0  0  0
 23 24  1  0  0  0  0
 25 26  2  0  0  0  0
 25 27  1  0  0  0  0
 27 28  1  0  0  0  0
 27 29  2  0  0  0  0
 29 30  1  0  0  0  0
 30 31  2  0  0  0  0
 30 32  1  0  0  0  0
M  END
$$$$

 OpenBabel10082008492D

 13 14  0  0  1  0  0  0  0  0999 V2000
    1.3849    1.1215    0.0000 N   0  0  0  0  0  0  0  0  0  0  0  0
    0.9781    0.2079    0.0000 C   0  0  0  0  0  0  0  0  0  0  0  0
    1.4781   -0.6581    0.0000 N   0  0  0  0  0  0  0  0  0  0  0  0
    0.8090   -1.4013    0.0000 C   0  0  0  0  0  0  0  0  0  0  0  0
    1.0169   -2.3794    0.0000 O   0  0  0  0  0  0  0  0  0  0  0  0
   -0.1045   -0.9945    0.0000 C   0  0  3  0  0  0  0  0  0  0  0  0
   -0.9706   -1.4945    0.0000 C   0  0  0  0  0  0  0  0  0  0  0  0
   -0.9706   -2.4945    0.0000 C   0  0  0  0  0  0  0  0  0  0  0  0
   -1.8366   -2.9945    0.0000 C   0  0  0  0  0  0  0  0  0  0  0  0
   -2.7026   -2.4945    0.0000 C   0  0  0  0  0  0  0  0  0  0  0  0
   -2.7026   -1.4945    0.0000 C   0  0  0  0  0  0  0  0  0  0  0  0
   -1.8366   -0.9945    0.0000 C   0  0  0  0  0  0  0  0  0  0  0  0
    0.0000   -0.0000    0.0000 O   0  0  0  0  0  0  0  0  0  0  0  0
  1  2  1  0  0  0  0
  2 13  1  0  0  0  0
  2  3  2  0  0  0  0
  3  4  1  0  0  0  0
  4  5  2  0  0  0  0
  4  6  1  0  0  0  0
  6  7  1  0  0  0  0
  6 13  1  0  0  0  0
  7 12  1  0  0  0  0
  7  8  2  0  0  0  0
  8  9  1  0  0  0  0
  9 10  2  0  0  0  0
 10 11  1  0  0  0  0
 11 12  2  0  0  0  0
M  END
$$$$

 OpenBabel10082008492D

 31 34  0  0  0  0  0  0  0  0999 V2000
    2.7321   -1.0000    0.0000 C   0  0  0  0  0  0  0  0  0  0  0  0
    1.8660   -1.5000    0.0000 C   0  0  0  0  0  0  0  0  0  0  0  0
    1.8660   -2.5000    0.0000 C   0  0  0  0  0  0  0  0  0  0  0  0
    1.0000   -3.0000    0.0000 C   0  0  0  0  0  0  0  0  0  0  0  0
    0.1340   -2.5000    0.0000 C   0  0  0  0  0  0  0  0  0  0  0  0
   -0.7321   -3.0000    0.0000 N   0  0  0  0  0  0  0  0  0  0  0  0
   -1.5981   -2.5000    0.0000 C   0  0  0  0  0  0  0  0  0  0  0  0
   -2.4641   -3.0000    0.0000 N   0  0  0  0  0  0  0  0  0  0  0  0
   -3.3301   -2.5000    0.0000 C   0  0  0  0  0  0  0  0  0  0  0  0
   -3.3301   -1.5000    0.0000 C   0  0  0  0  0  0  0  0  0  0  0  0
   -2.4641   -1.0000    0.0000 C   0  0  0  0  0  0  0  0  0  0  0  0
   -2.4641    0.0000    0.0000 N   0  0  0  0  0  0  0  0  0  0  0  0
   -1.5981    0.5000    0.0000 C   0  0  0  0  0  0  0  0  0  0  0  0
   -3.3301    0.5000    0.0000 C   0  0  0  0  0  0  0  0  0  0  0  0
   -4.1962    0.0000    0.0000 C   0  0  0  0  0  0  0  0  0  0  0  0
   -5.0622    0.5000    0.0000 C   0  0  0  0  0  0  0  0  0  0  0  0
   -5.0622    1.5000    0.0000 C   0  0  0  0  0  0  0  0  0  0  0  0
   -5.8053    2.1691    0.0000 C   0  0  0  0  0  0  0  0  0  0  0  0
   -6.7835    1.9612    0.0000 C   0  0  0  0  0  0  0  0  0  0  0  0
   -5.3986    3.0827    0.0000 N   0  0  0  0  0  0  0  0  0  0  0  0
   -5.8986    3.9487    0.0000 C   0  0  0  0  0  0  0  0  0  0  0  0
   -4.4041    2.9781    0.0000 N   0  0  0  0  0  0  0  0  0  0  0  0
   -4.1962    2.0000    0.0000 C   0  0  0  0  0  0  0  0  0  0  0  0
   -3.3301    1.5000    0.0000 C   0  0  0  0  0  0  0  0  0  0  0  0
   -1.5981   -1.5000    0.0000 N   0  0  0  0  0  0  0  0  0  0  0  0
    0.1340   -1.5000    0.0000 C   0  0  0  0  0  0  0  0  0  0  0  0
    1.0000   -1.0000    0.0000 C   0  0  0  0  0  0  0  0  0  0  0  0
    1.0000   -0.0000    0.0000 S   0  0  0  0  0  0  0  0  0  0  0  0
    2.0000   -0.0000    0.0000 N   0  0  0  0  0  0  0  0  0  0  0  0
    1.0000    1.0000    0.0000 O   0  0  0  0  0  0  0  0  0  0  0  0
    0.0000    0.0000    0.0000 O   0  0  0  0  0  0  0  0  0  0  0  0
  1  2  1  0  0  0  0
  2 27  1  0  0  0  0
  2  3  2  0  0  0  0
  3  4  1  0  0  0  0
  4  5  2  0  0  0  0
  5  6  1  0  0  0  0
  5 26  1  0  0  0  0
  6  7  1  0  0  0  0
  7 25  1  0  0  0  0
  7  8  2  0  0  0  0
  8  9  1  0  0  0  0
  9 10  2  0  0  0  0
 10 11  1  0  0  0  0
 11 12  1  0  0  0  0
 11 25  2  0  0  0  0
 12 13  1  0  0  0  0
 12 14  1  0  0  0  0
 14 24  2  0  0  0  0
 14 15  1  0  0  0  0
 15 16  2  0  0  0  0
 16 17  1  0  0  0  0
 17 23  1  0  0  0  0
 17 18  2  0  0  0  0
 18 19  1  0  0  0  0
 18 20  1  0  0  0  0
 20 21  1  0  0  0  0
 20 22  1  0  0  0  0
 22 23  2  0  0  0  0
 23 24  1  0  0  0  0
 26 27  2  0  0  0  0
 27 28  1  0  0  0  0
 28 29  1  0  0  0  0
 28 30  2  0  0  0  0
 28 31  2  0  0  0  0
M  END
$$$$

 OpenBabel10082008492D

 20 22  0  0  0  0  0  0  0  0999 V2000
   -4.5747   -0.4266    0.0000 C   0  0  0  0  0  0  0  0  0  0  0  0
   -3.8416   -1.1068    0.0000 N   0  0  0  0  0  0  0  0  0  0  0  0
   -2.8861   -0.8120    0.0000 C   0  0  0  0  0  0  0  0  0  0  0  0
   -2.1530   -1.4922    0.0000 C   0  0  0  0  0  0  0  0  0  0  0  0
   -1.1974   -1.1974    0.0000 C   0  0  0  0  0  0  0  0  0  0  0  0
   -0.9749   -0.2225    0.0000 C   0  0  0  0  0  0  0  0  0  0  0  0
   -1.7568    0.4010    0.0000 C   0  0  0  0  0  0  0  0  0  0  0  0
   -2.6228   -0.0990    0.0000 C   0  0  0  0  0  0  0  0  0  0  0  0
   -3.4888    0.4010    0.0000 C   0  0  0  0  0  0  0  0  0  0  0  0
   -3.4888    1.4010    0.0000 C   0  0  0  0  0  0  0  0  0  0  0  0
   -2.6228    1.9010    0.0000 C   0  0  0  0  0  0  0  0  0  0  0  0
   -1.7568    1.4010    0.0000 C   0  0  0  0  0  0  0  0  0  0  0  0
   -0.9749    2.0245    0.0000 C   0  0  0  0  0  0  0  0  0  0  0  0
   -0.0000    1.8019    0.0000 C   0  0  0  0  0  0  0  0  0  0  0  0
    0.4339    0.9010    0.0000 C   0  0  0  0  0  0  0  0  0  0  0  0
    1.4311    0.9757    0.0000 C   0  0  0  0  0  0  0  0  0  0  0  0
    1.9944    0.1495    0.0000 C   0  0  0  0  0  0  0  0  0  0  0  0
    1.5605   -0.7515    0.0000 C   0  0  0  0  0  0  0  0  0  0  0  0
    0.5633   -0.8262    0.0000 C   0  0  0  0  0  0  0  0  0  0  0  0
   -0.0000   -0.0000    0.0000 C   0  0  0  0  0  0  0  0  0  0  0  0
  1  2  1  0  0  0  0
  2  3  1  0  0  0  0
  3  4  1  0  0  0  0
  4  5  1  0  0  0  0
  5  6  2  0  0  0  0
  6 20  1  0  0  0  0
  6  7  1  0  0  0  0
  7 12  1  0  0  0  0
  7  8  2  0  0  0  0
  8  9  1  0  0  0  0
  9 10  2  0  0  0  0
 10 11  1  0  0  0  0
 11 12  2  0  0  0  0
 12 13  1  0  0  0  0
 13 14  1  0  0  0  0
 14 15  1  0  0  0  0
 15 20  1  0  0  0  0
 15 16  2  0  0  0  0
 16 17  1  0  0  0  0
 17 18  2  0  0  0  0
 18 19  1  0  0  0  0
 19 20  2  0  0  0  0
M  END
$$$$

 OpenBabel10082008492D

 31 32  0  0  1  0  0  0  0  0999 V2000
   -3.2705    3.7012    0.0000 C   0  0  0  0  0  0  0  0  0  0  0  0
   -2.6217    2.9805    0.0000 C   0  0  0  0  0  0  0  0  0  0  0  0
   -1.6732    3.1822    0.0000 C   0  0  0  0  0  0  0  0  0  0  0  0
   -1.0243    2.4615    0.0000 C   0  0  2  0  0  0  0  0  0  0  0  0
   -0.3037    3.1104    0.0000 H   0  0  0  0  0  0  0  0  0  0  0  0
   -0.3755    1.7409    0.0000 N   0  0  0  0  0  0  0  0  0  0  0  0
    0.5730    1.9425    0.0000 C   0  0  1  0  0  0  0  0  0  0  0  0
    1.2937    2.5914    0.0000 H   0  0  0  0  0  0  0  0  0  0  0  0
    0.3714    2.8910    0.0000 C   0  0  0  0  0  0  0  0  0  0  0  0
    1.2219    1.2219    0.0000 C   0  0  0  0  0  0  0  0  0  0  0  0
    3.1189    1.6251    0.0000 O   0  0  0  0  0  0  0  0  0  0  0  0
    0.9222    0.2997    0.0000 N   0  0  0  0  0  0  0  0  0  0  0  0
    1.4922   -0.4848    0.0000 C   0  0  2  0  0  0  0  0  0  0  0  0
    2.3320   -0.9697    0.0000 H   0  0  0  0  0  0  0  0  0  0  0  0
    2.3320   -0.0000    0.0000 C   0  0  0  0  0  0  0  0  0  0  0  0
    3.1718   -0.4848    0.0000 O   0  0  0  0  0  0  0  0  0  0  0  0
    2.3320    0.9697    0.0000 O   0  0  0  0  0  0  0  0  0  0  0  0
    0.9222   -1.2693    0.0000 C   0  0  0  0  0  0  0  0  0  0  0  0
   -0.0000   -0.9697    0.0000 C   0  0  2  0  0  0  0  0  0  0  0  0
   -0.3944   -1.8556    0.0000 H   0  0  0  0  0  0  0  0  0  0  0  0
   -0.8398   -1.4545    0.0000 C   0  0  0  0  0  0  0  0  0  0  0  0
   -1.6796   -0.9697    0.0000 C   0  0  0  0  0  0  0  0  0  0  0  0
   -1.6796    0.0000    0.0000 C   0  0  0  0  0  0  0  0  0  0  0  0
   -0.8398    0.4848    0.0000 C   0  0  0  0  0  0  0  0  0  0  0  0
    0.0000   -0.0000    0.0000 C   0  0  2  0  0  0  0  0  0  0  0  0
   -0.3944    0.8859    0.0000 H   0  0  0  0  0  0  0  0  0  0  0  0
   -1.7450    1.8127    0.0000 C   0  0  0  0  0  0  0  0  0  0  0  0
   -1.5433    0.8642    0.0000 O   0  0  0  0  0  0  0  0  0  0  0  0
   -2.6672    2.1123    0.0000 O   0  0  0  0  0  0  0  0  0  0  0  0
   -3.3878    1.4635    0.0000 C   0  0  0  0  0  0  0  0  0  0  0  0
   -3.1862    0.5150    0.0000 C   0  0  0  0  0  0  0  0  0  0  0  0
  1  2  1  0  0  0  0
  2  3  1  0  0  0  0
  3  4  1  0  0  0  0
  4  5  1  1  0  0  0
  4  6  1  0  0  0  0
  4 27  1  0  0  0  0
  6  7  1  0  0  0  0
  7  8  1  6  0  0  0
  7  9  1  0  0  0  0
  7 10  1  0  0  0  0
 10 11  2  0  0  0  0
 10 12  1  0  0  0  0
 12 25  1  0  0  0  0
 12 13  1  0  0  0  0
 13 14  1  1  0  0  0
 13 15  1  0  0  0  0
 13 18  1  0  0  0  0
 15 16  2  0  0  0  0
 15 17  1  0  0  0  0
 18 19  1  0  0  0  0
 19 20  1  1  0  0  0
 19 25  1  0  0  0  0
 19 21  1  0  0  0  0
 21 22  1  0  0  0  0
 22 23  1  0  0  0  0
 23 24  1  0  0  0  0
 24 25  1  0  0  0  0
 25 26  1  1  0  0  0
 27 28  2  0  0  0  0
 27 29  1  0  0  0  0
 29 30  1  0  0  0  0
 30 31  1  0  0  0  0
M  END
$$$$

 OpenBabel10082008492D

 31 33  0  0  1  0  0  0  0  0999 V2000
   -4.8301    7.5622    0.0000 C   0  0  0  0  0  0  0  0  0  0  0  0
   -5.8301    7.5622    0.0000 C   0  0  0  0  0  0  0  0  0  0  0  0
   -6.3301    6.6962    0.0000 C   0  0  0  0  0  0  0  0  0  0  0  0
   -5.8301    5.8301    0.0000 C   0  0  0  0  0  0  0  0  0  0  0  0
   -6.3301    4.9641    0.0000 C   0  0  0  0  0  0  0  0  0  0  0  0
   -5.8301    4.0981    0.0000 C   0  0  0  0  0  0  0  0  0  0  0  0
   -6.3301    3.2321    0.0000 C   0  0  0  0  0  0  0  0  0  0  0  0
   -5.8301    2.3660    0.0000 C   0  0  0  0  0  0  0  0  0  0  0  0
   -6.3301    1.5000    0.0000 O   0  0  0  0  0  0  0  0  0  0  0  0
   -4.8301    2.3660    0.0000 N   0  0  0  0  0  0  0  0  0  0  0  0
   -4.3301    1.5000    0.0000 C   0  0  2  0  0  0  0  0  0  0  0  0
   -5.1962    1.0000    0.0000 H   0  0  0  0  0  0  0  0  0  0  0  0
   -3.8301    0.6340    0.0000 C   0  0  0  0  0  0  0  0  0  0  0  0
   -4.3301   -0.2321    0.0000 N   0  0  0  0  0  0  0  0  0  0  0  0
   -3.9234   -1.1456    0.0000 C   0  0  0  0  0  0  0  0  0  0  0  0
   -4.6665   -1.8147    0.0000 C   0  0  0  0  0  0  0  0  0  0  0  0
   -5.5326   -1.3147    0.0000 C   0  0  0  0  0  0  0  0  0  0  0  0
   -5.3246   -0.3366    0.0000 C   0  0  0  0  0  0  0  0  0  0  0  0
   -3.4641    2.0000    0.0000 C   0  0  2  0  0  0  0  0  0  0  0  0
   -2.9641    2.8660    0.0000 H   0  0  0  0  0  0  0  0  0  0  0  0
   -3.9641    2.8660    0.0000 O   0  0  0  0  0  0  0  0  0  0  0  0
   -2.5981    1.5000    0.0000 C   0  0  0  0  0  0  0  0  0  0  0  0
   -1.7321    2.0000    0.0000 C   0  0  0  0  0  0  0  0  0  0  0  0
   -0.8660    1.5000    0.0000 C   0  0  0  0  0  0  0  0  0  0  0  0
   -0.8660    0.5000    0.0000 C   0  0  0  0  0  0  0  0  0  0  0  0
   -1.7321    0.0000    0.0000 C   0  0  0  0  0  0  0  0  0  0  0  0
   -2.5981    0.5000    0.0000 C   0  0  0  0  0  0  0  0  0  0  0  0
   -1.7321   -1.0000    0.0000 O   0  0  0  0  0  0  0  0  0  0  0  0
   -0.8660   -1.5000    0.0000 C   0  0  0  0  0  0  0  0  0  0  0  0
   -0.0000   -1.0000    0.0000 C   0  0  0  0  0  0  0  0  0  0  0  0
   -0.0000   -0.0000    0.0000 O   0  0  0  0  0  0  0  0  0  0  0  0
  1  2  1  0  0  0  0
  2  3  1  0  0  0  0
  3  4  1  0  0  0  0
  4  5  1  0  0  0  0
  5  6  1  0  0  0  0
  6  7  1  0  0  0  0
  7  8  1  0  0  0  0
  8  9  2  0  0  0  0
  8 10  1  0  0  0  0
 10 11  1  0  0  0  0
 11 12  1  6  0  0  0
 11 13  1  0  0  0  0
 11 19  1  0  0  0  0
 13 14  1  0  0  0  0
 14 18  1  0  0  0  0
 14 15  1  0  0  0  0
 15 16  1  0  0  0  0
 16 17  1  0  0  0  0
 17 18  1  0  0  0  0
 19 20  1  1  0  0  0
 19 21  1  0  0  0  0
 19 22  1  0  0  0  0
 22 27  1  0  0  0  0
 22 23  2  0  0  0  0
 23 24  1  0  0  0  0
 24 25  2  0  0  0  0
 25 31  1  0  0  0  0
 25 26  1  0  0  0  0
 26 27  2  0  0  0  0
 26 28  1  0  0  0  0
 28 29  1  0  0  0  0
 29 30  1  0  0  0  0
 30 31  1  0  0  0  0
M  END
$$$$

 OpenBabel10082008492D

 32 33  0  0  1  0  0  0  0  0999 V2000
    3.4641   -5.0000    0.0000 C   0  0  0  0  0  0  0  0  0  0  0  0
    3.4641   -4.0000    0.0000 C   0  0  0  0  0  0  0  0  0  0  0  0
    2.5981   -3.5000    0.0000 O   0  0  0  0  0  0  0  0  0  0  0  0
    2.5981   -2.5000    0.0000 C   0  0  0  0  0  0  0  0  0  0  0  0
    1.7321   -2.0000    0.0000 O   0  0  0  0  0  0  0  0  0  0  0  0
    3.4641   -2.0000    0.0000 C   0  0  2  0  0  0  0  0  0  0  0  0
    4.4641   -2.0000    0.0000 H   0  0  0  0  0  0  0  0  0  0  0  0
    3.9641   -2.8660    0.0000 C   0  0  0  0  0  0  0  0  0  0  0  0
    3.4641   -1.0000    0.0000 C   0  0  0  0  0  0  0  0  0  0  0  0
    2.5981   -0.5000    0.0000 C   0  0  1  0  0  0  0  0  0  0  0  0
    2.0981   -1.3660    0.0000 H   0  0  0  0  0  0  0  0  0  0  0  0
    1.7321    0.0000    0.0000 C   0  0  0  0  0  0  0  0  0  0  0  0
    0.8660   -0.5000    0.0000 C   0  0  0  0  0  0  0  0  0  0  0  0
    0.8660   -1.5000    0.0000 C   0  0  0  0  0  0  0  0  0  0  0  0
    0.0000   -2.0000    0.0000 C   0  0  0  0  0  0  0  0  0  0  0  0
   -0.8660   -1.5000    0.0000 C   0  0  0  0  0  0  0  0  0  0  0  0
   -1.7321   -2.0000    0.0000 C   0  0  0  0  0  0  0  0  0  0  0  0
   -1.7321   -3.0000    0.0000 C   0  0  0  0  0  0  0  0  0  0  0  0
   -2.5981   -3.5000    0.0000 C   0  0  0  0  0  0  0  0  0  0  0  0
   -3.4641   -3.0000    0.0000 C   0  0  0  0  0  0  0  0  0  0  0  0
   -3.4641   -2.0000    0.0000 C   0  0  0  0  0  0  0  0  0  0  0  0
   -2.5981   -1.5000    0.0000 C   0  0  0  0  0  0  0  0  0  0  0  0
   -0.8660   -0.5000    0.0000 C   0  0  0  0  0  0  0  0  0  0  0  0
    0.0000    0.0000    0.0000 C   0  0  0  0  0  0  0  0  0  0  0  0
    3.0981    0.3660    0.0000 N   0  0  0  0  0  0  0  0  0  0  0  0
    2.5981    1.2321    0.0000 C   0  0  0  0  0  0  0  0  0  0  0  0
    1.5981    1.2321    0.0000 O   0  0  0  0  0  0  0  0  0  0  0  0
    3.0981    2.0981    0.0000 C   0  0  0  0  0  0  0  0  0  0  0  0
    2.5981    2.9641    0.0000 C   0  0  0  0  0  0  0  0  0  0  0  0
    3.0981    3.8301    0.0000 C   0  0  0  0  0  0  0  0  0  0  0  0
    2.5981    4.6962    0.0000 O   0  0  0  0  0  0  0  0  0  0  0  0
    4.0981    3.8301    0.0000 O   0  0  0  0  0  0  0  0  0  0  0  0
  1  2  1  0  0  0  0
  2  3  1  0  0  0  0
  3  4  1  0  0  0  0
  4  5  2  0  0  0  0
  4  6  1  0  0  0  0
  6  7  1  6  0  0  0
  6  8  1  0  0  0  0
  6  9  1  0  0  0  0
  9 10  1  0  0  0  0
 10 11  1  6  0  0  0
 10 12  1  0  0  0  0
 10 25  1  0  0  0  0
 12 13  1  0  0  0  0
 13 24  1  0  0  0  0
 13 14  2  0  0  0  0
 14 15  1  0  0  0  0
 15 16  2  0  0  0  0
 16 17  1  0  0  0  0
 16 23  1  0  0  0  0
 17 22  1  0  0  0  0
 17 18  2  0  0  0  0
 18 19  1  0  0  0  0
 19 20  2  0  0  0  0
 20 21  1  0  0  0  0
 21 22  2  0  0  0  0
 23 24  2  0  0  0  0
 25 26  1  0  0  0  0
 26 27  2  0  0  0  0
 26 28  1  0  0  0  0
 28 29  1  0  0  0  0
 29 30  1  0  0  0  0
 30 31  2  0  0  0  0
 30 32  1  0  0  0  0
M  END
$$$$

 OpenBabel10082008492D

 28 30  0  0  1  0  0  0  0  0999 V2000
    4.3301   -2.5000    0.0000 O   0  0  0  0  0  0  0  0  0  0  0  0
    4.3301   -1.5000    0.0000 C   0  0  0  0  0  0  0  0  0  0  0  0
    5.1962   -1.0000    0.0000 O   0  0  0  0  0  0  0  0  0  0  0  0
    3.4641   -1.0000    0.0000 C   0  0  0  0  0  0  0  0  0  0  0  0
    2.5981   -1.5000    0.0000 O   0  0  0  0  0  0  0  0  0  0  0  0
    1.7321   -1.0000    0.0000 C   0  0  0  0  0  0  0  0  0  0  0  0
    0.8660   -1.5000    0.0000 C   0  0  0  0  0  0  0  0  0  0  0  0
    0.0000   -1.0000    0.0000 N   0  0  0  0  0  0  0  0  0  0  0  0
   -0.8660   -1.5000    0.0000 C   0  0  0  0  0  0  0  0  0  0  0  0
   -1.7321   -1.0000    0.0000 C   0  0  0  0  0  0  0  0  0  0  0  0
   -1.7321   -0.0000    0.0000 N   0  0  0  0  0  0  0  0  0  0  0  0
   -2.5981    0.5000    0.0000 C   0  0  2  0  0  0  0  0  0  0  0  0
   -2.0981    1.3660    0.0000 H   0  0  0  0  0  0  0  0  0  0  0  0
   -3.4641    1.0000    0.0000 C   0  0  0  0  0  0  0  0  0  0  0  0
   -4.3301    0.5000    0.0000 C   0  0  0  0  0  0  0  0  0  0  0  0
   -5.1962    1.0000    0.0000 C   0  0  0  0  0  0  0  0  0  0  0  0
   -5.1962    2.0000    0.0000 C   0  0  0  0  0  0  0  0  0  0  0  0
   -4.3301    2.5000    0.0000 C   0  0  0  0  0  0  0  0  0  0  0  0
   -3.4641    2.0000    0.0000 C   0  0  0  0  0  0  0  0  0  0  0  0
   -3.0981   -0.3660    0.0000 C   0  0  0  0  0  0  0  0  0  0  0  0
   -2.5981   -1.2321    0.0000 C   0  0  0  0  0  0  0  0  0  0  0  0
   -3.0981   -2.0981    0.0000 C   0  0  0  0  0  0  0  0  0  0  0  0
   -4.0981   -2.0981    0.0000 C   0  0  0  0  0  0  0  0  0  0  0  0
   -4.5981   -2.9641    0.0000 Cl  0  0  0  0  0  0  0  0  0  0  0  0
   -4.5981   -1.2321    0.0000 C   0  0  0  0  0  0  0  0  0  0  0  0
   -4.0981   -0.3660    0.0000 C   0  0  0  0  0  0  0  0  0  0  0  0
   -0.8660    0.5000    0.0000 C   0  0  0  0  0  0  0  0  0  0  0  0
   -0.0000   -0.0000    0.0000 C   0  0  0  0  0  0  0  0  0  0  0  0
  1  2  2  0  0  0  0
  2  3  1  0  0  0  0
  2  4  1  0  0  0  0
  4  5  1  0  0  0  0
  5  6  1  0  0  0  0
  6  7  1  0  0  0  0
  7  8  1  0  0  0  0
  8 28  1  0  0  0  0
  8  9  1  0  0  0  0
  9 10  1  0  0  0  0
 10 11  1  0  0  0  0
 11 12  1  0  0  0  0
 11 27  1  0  0  0  0
 12 13  1  6  0  0  0
 12 14  1  0  0  0  0
 12 20  1  0  0  0  0
 14 19  1  0  0  0  0
 14 15  2  0  0  0  0
 15 16  1  0  0  0  0
 16 17  2  0  0  0  0
 17 18  1  0  0  0  0
 18 19  2  0  0  0  0
 20 26  1  0  0  0  0
 20 21  2  0  0  0  0
 21 22  1  0  0  0  0
 22 23  2  0  0  0  0
 23 24  1  0  0  0  0
 23 25  1  0  0  0  0
 25 26  2  0  0  0  0
 27 28  1  0  0  0  0
M  END
$$$$

 OpenBabel10082008492D

 12 11  0  0  1  0  0  0  0  0999 V2000
   -1.0000   -1.0000    0.0000 C   0  0  0  0  0  0  0  0  0  0  0  0
    0.0000   -1.0000    0.0000 N   0  3  0  0  0  0  0  0  0  0  0  0
    0.0000   -2.0000    0.0000 C   0  0  0  0  0  0  0  0  0  0  0  0
    1.0000   -1.0000    0.0000 C   0  0  0  0  0  0  0  0  0  0  0  0
    0.0000    0.0000    0.0000 C   0  0  0  0  0  0  0  0  0  0  0  0
    0.8660    0.5000    0.0000 C   0  0  2  0  0  0  0  0  0  0  0  0
    1.3660    1.3660    0.0000 H   0  0  0  0  0  0  0  0  0  0  0  0
    0.3660    1.3660    0.0000 O   0  0  0  0  0  0  0  0  0  0  0  0
    1.7321    0.0000    0.0000 C   0  0  0  0  0  0  0  0  0  0  0  0
    2.5981    0.5000    0.0000 C   0  0  0  0  0  0  0  0  0  0  0  0
    3.4641    0.0000    0.0000 O   0  0  0  0  0  0  0  0  0  0  0  0
    2.5981    1.5000    0.0000 O   0  5  0  0  0  0  0  0  0  0  0  0
  1  2  1  0  0  0  0
  2  3  1  0  0  0  0
  2  4  1  0  0  0  0
  2  5  1  0  0  0  0
  5  6  1  0  0  0  0
  6  7  1  1  0  0  0
  6  8  1  0  0  0  0
  6  9  1  0  0  0  0
  9 10  1  0  0  0  0
 10 11  2  0  0  0  0
 10 12  1  0  0  0  0
M  CHG  2   2   1  12  -1
M  END
$$$$

 OpenBabel10082008492D

 17 17  0  0  0  0  0  0  0  0999 V2000
    4.3301    2.5000    0.0000 C   0  0  0  0  0  0  0  0  0  0  0  0
    3.4641    3.0000    0.0000 C   0  0  0  0  0  0  0  0  0  0  0  0
    2.5981    2.5000    0.0000 N   0  0  0  0  0  0  0  0  0  0  0  0
    1.7321    3.0000    0.0000 C   0  0  0  0  0  0  0  0  0  0  0  0
    0.8660    2.5000    0.0000 C   0  0  0  0  0  0  0  0  0  0  0  0
    2.5981    1.5000    0.0000 C   0  0  0  0  0  0  0  0  0  0  0  0
    1.7321    1.0000    0.0000 C   0  0  0  0  0  0  0  0  0  0  0  0
    0.8660    1.5000    0.0000 O   0  0  0  0  0  0  0  0  0  0  0  0
    1.7321    0.0000    0.0000 N   0  0  0  0  0  0  0  0  0  0  0  0
    0.8660   -0.5000    0.0000 C   0  0  0  0  0  0  0  0  0  0  0  0
    0.8660   -1.5000    0.0000 C   0  0  0  0  0  0  0  0  0  0  0  0
    1.7321   -2.0000    0.0000 C   0  0  0  0  0  0  0  0  0  0  0  0
    0.0000   -2.0000    0.0000 C   0  0  0  0  0  0  0  0  0  0  0  0
   -0.8660   -1.5000    0.0000 C   0  0  0  0  0  0  0  0  0  0  0  0
   -0.8660   -0.5000    0.0000 C   0  0  0  0  0  0  0  0  0  0  0  0
   -0.0000   -0.0000    0.0000 C   0  0  0  0  0  0  0  0  0  0  0  0
   -0.0000    1.0000    0.0000 C   0  0  0  0  0  0  0  0  0  0  0  0
  1  2  1  0  0  0  0
  2  3  1  0  0  0  0
  3  4  1  0  0  0  0
  3  6  1  0  0  0  0
  4  5  1  0  0  0  0
  6  7  1  0  0  0  0
  7  8  2  0  0  0  0
  7  9  1  0  0  0  0
  9 10  1  0  0  0  0
 10 16  1  0  0  0  0
 10 11  2  0  0  0  0
 11 12  1  0  0  0  0
 11 13  1  0  0  0  0
 13 14  2  0  0  0  0
 14 15  1  0  0  0  0
 15 16  2  0  0  0  0
 16 17  1  0  0  0  0
M  END
$$$$

 OpenBabel10082008492D

 45 48  0  0  1  0  0  0  0  0999 V2000
   -1.7321   -2.0000    0.0000 C   0  0  0  0  0  0  0  0  0  0  0  0
   -0.8660   -1.5000    0.0000 O   0  0  0  0  0  0  0  0  0  0  0  0
   -0.8660   -0.5000    0.0000 C   0  0  0  0  0  0  0  0  0  0  0  0
   -1.7321   -0.0000    0.0000 C   0  0  0  0  0  0  0  0  0  0  0  0
   -1.7321    1.0000    0.0000 C   0  0  0  0  0  0  0  0  0  0  0  0
   -0.8660    1.5000    0.0000 C   0  0  0  0  0  0  0  0  0  0  0  0
   -0.8660    2.5000    0.0000 C   0  0  0  0  0  0  0  0  0  0  0  0
    0.0000    3.0000    0.0000 N   0  0  0  0  0  0  0  0  0  0  0  0
    0.8660    2.5000    0.0000 C   0  0  0  0  0  0  0  0  0  0  0  0
    0.8660    1.5000    0.0000 O   0  0  0  0  0  0  0  0  0  0  0  0
    1.7321    3.0000    0.0000 C   0  0  1  0  0  0  0  0  0  0  0  0
    2.7321    3.0000    0.0000 H   0  0  0  0  0  0  0  0  0  0  0  0
    2.2321    2.1340    0.0000 N   0  0  0  0  0  0  0  0  0  0  0  0
    1.7321    4.0000    0.0000 C   0  0  0  0  0  0  0  0  0  0  0  0
    2.5981    4.5000    0.0000 C   0  0  0  0  0  0  0  0  0  0  0  0
    3.4641    4.0000    0.0000 C   0  0  0  0  0  0  0  0  0  0  0  0
    3.4641    3.0000    0.0000 C   0  0  0  0  0  0  0  0  0  0  0  0
    4.3301    4.5000    0.0000 C   0  0  0  0  0  0  0  0  0  0  0  0
    4.3301    5.5000    0.0000 C   0  0  0  0  0  0  0  0  0  0  0  0
    5.1962    6.0000    0.0000 C   0  0  0  0  0  0  0  0  0  0  0  0
    5.1962    7.0000    0.0000 N   0  0  0  0  0  0  0  0  0  0  0  0
    6.0622    5.5000    0.0000 O   0  0  0  0  0  0  0  0  0  0  0  0
    3.4641    6.0000    0.0000 C   0  0  0  0  0  0  0  0  0  0  0  0
    2.5981    5.5000    0.0000 C   0  0  0  0  0  0  0  0  0  0  0  0
    1.7321    6.0000    0.0000 C   0  0  0  0  0  0  0  0  0  0  0  0
    0.0000    4.0000    0.0000 C   0  0  1  0  0  0  0  0  0  0  0  0
    1.0000    4.0000    0.0000 H   0  0  0  0  0  0  0  0  0  0  0  0
    0.5000    4.8660    0.0000 C   0  0  0  0  0  0  0  0  0  0  0  0
   -0.8660    4.5000    0.0000 C   0  0  0  0  0  0  0  0  0  0  0  0
   -1.7796    4.0933    0.0000 N   0  0  0  0  0  0  0  0  0  0  0  0
   -2.4487    4.8364    0.0000 C   0  0  0  0  0  0  0  0  0  0  0  0
   -3.4432    4.7319    0.0000 C   0  0  0  0  0  0  0  0  0  0  0  0
   -3.8500    3.8183    0.0000 C   0  0  0  0  0  0  0  0  0  0  0  0
   -4.8445    3.7138    0.0000 C   0  0  0  0  0  0  0  0  0  0  0  0
   -5.4323    4.5228    0.0000 C   0  0  0  0  0  0  0  0  0  0  0  0
   -5.0255    5.4364    0.0000 C   0  0  0  0  0  0  0  0  0  0  0  0
   -4.0310    5.5409    0.0000 C   0  0  0  0  0  0  0  0  0  0  0  0
   -1.9487    5.7024    0.0000 C   0  0  0  0  0  0  0  0  0  0  0  0
   -0.9706    5.4945    0.0000 N   0  0  0  0  0  0  0  0  0  0  0  0
   -0.2274    6.1637    0.0000 H   0  0  0  0  0  0  0  0  0  0  0  0
   -0.0000    1.0000    0.0000 C   0  0  0  0  0  0  0  0  0  0  0  0
    0.0000    0.0000    0.0000 C   0  0  0  0  0  0  0  0  0  0  0  0
    0.8660   -0.5000    0.0000 C   0  0  0  0  0  0  0  0  0  0  0  0
    0.8660   -1.5000    0.0000 O   0  0  0  0  0  0  0  0  0  0  0  0
    1.7321    0.0000    0.0000 O   0  0  0  0  0  0  0  0  0  0  0  0
  1  2  1  0  0  0  0
  2  3  1  0  0  0  0
  3 42  1  0  0  0  0
  3  4  2  0  0  0  0
  4  5  1  0  0  0  0
  5  6  2  0  0  0  0
  6  7  1  0  0  0  0
  6 41  1  0  0  0  0
  7  8  1  0  0  0  0
  8  9  1  0  0  0  0
  8 26  1  0  0  0  0
  9 10  2  0  0  0  0
  9 11  1  0  0  0  0
 11 12  1  1  0  0  0
 11 13  1  0  0  0  0
 11 14  1  0  0  0  0
 14 15  1  0  0  0  0
 15 24  1  0  0  0  0
 15 16  2  0  0  0  0
 16 17  1  0  0  0  0
 16 18  1  0  0  0  0
 18 19  2  0  0  0  0
 19 20  1  0  0  0  0
 19 23  1  0  0  0  0
 20 21  1  0  0  0  0
 20 22  2  0  0  0  0
 23 24  2  0  0  0  0
 24 25  1  0  0  0  0
 26 27  1  1  0  0  0
 26 28  1  0  0  0  0
 26 29  1  0  0  0  0
 29 39  1  0  0  0  0
 29 30  2  0  0  0  0
 30 31  1  0  0  0  0
 31 32  1  0  0  0  0
 31 38  2  0  0  0  0
 32 37  1  0  0  0  0
 32 33  2  0  0  0  0
 33 34  1  0  0  0  0
 34 35  2  0  0  0  0
 35 36  1  0  0  0  0
 36 37  2  0  0  0  0
 38 39  1  0  0  0  0
 39 40  1  0  0  0  0
 41 42  2  0  0  0  0
 42 43  1  0  0  0  0
 43 44  2  0  0  0  0
 43 45  1  0  0  0  0
M  END
$$$$

 OpenBabel10082008492D

 19 21  0  0  1  0  0  0  0  0999 V2000
   -1.5000    0.8660    0.0000 O   0  0  0  0  0  0  0  0  0  0  0  0
   -0.5000    0.8660    0.0000 C   0  0  0  0  0  0  0  0  0  0  0  0
   -0.0000    1.7321    0.0000 C   0  0  0  0  0  0  0  0  0  0  0  0
    1.0000    1.7321    0.0000 C   0  0  0  0  0  0  0  0  0  0  0  0
    1.5000    0.8660    0.0000 C   0  0  3  0  0  0  0  0  0  0  0  0
    2.5000    0.8660    0.0000 N   0  0  0  0  0  0  0  0  0  0  0  0
    3.0878    1.6750    0.0000 C   0  0  0  0  0  0  0  0  0  0  0  0
    2.7788    2.6261    0.0000 O   0  0  0  0  0  0  0  0  0  0  0  0
    4.0388    1.3660    0.0000 C   0  0  0  0  0  0  0  0  0  0  0  0
    4.9049    1.8660    0.0000 C   0  0  0  0  0  0  0  0  0  0  0  0
    5.7709    1.3660    0.0000 C   0  0  0  0  0  0  0  0  0  0  0  0
    5.7709    0.3660    0.0000 C   0  0  0  0  0  0  0  0  0  0  0  0
    4.9049   -0.1340    0.0000 C   0  0  0  0  0  0  0  0  0  0  0  0
    4.0388    0.3660    0.0000 C   0  0  0  0  0  0  0  0  0  0  0  0
    3.0878    0.0570    0.0000 C   0  0  0  0  0  0  0  0  0  0  0  0
    2.7788   -0.8940    0.0000 O   0  0  0  0  0  0  0  0  0  0  0  0
    1.0000   -0.0000    0.0000 C   0  0  0  0  0  0  0  0  0  0  0  0
    1.5000   -0.8660    0.0000 O   0  0  0  0  0  0  0  0  0  0  0  0
    0.0000   -0.0000    0.0000 N   0  0  0  0  0  0  0  0  0  0  0  0
  1  2  2  0  0  0  0
  2 19  1  0  0  0  0
  2  3  1  0  0  0  0
  3  4  1  0  0  0  0
  4  5  1  0  0  0  0
  5  6  1  0  0  0  0
  5 17  1  0  0  0  0
  6 15  1  0  0  0  0
  6  7  1  0  0  0  0
  7  8  2  0  0  0  0
  7  9  1  0  0  0  0
  9 14  1  0  0  0  0
  9 10  2  0  0  0  0
 10 11  1  0  0  0  0
 11 12  2  0  0  0  0
 12 13  1  0  0  0  0
 13 14  2  0  0  0  0
 14 15  1  0  0  0  0
 15 16  2  0  0  0  0
 17 18  2  0  0  0  0
 17 19  1  0  0  0  0
M  END
$$$$

 OpenBabel10082008492D

 20 21  0  0  0  0  0  0  0  0999 V2000
    0.0000   -3.0000    0.0000 C   0  0  0  0  0  0  0  0  0  0  0  0
    0.8660   -2.5000    0.0000 C   0  0  0  0  0  0  0  0  0  0  0  0
    0.8660   -1.5000    0.0000 C   0  0  0  0  0  0  0  0  0  0  0  0
    1.7321   -1.0000    0.0000 C   0  0  0  0  0  0  0  0  0  0  0  0
    1.7321   -0.0000    0.0000 C   0  0  0  0  0  0  0  0  0  0  0  0
    2.5981    0.5000    0.0000 C   0  0  0  0  0  0  0  0  0  0  0  0
    2.5981   -1.5000    0.0000 C   0  0  0  0  0  0  0  0  0  0  0  0
    2.5981   -2.5000    0.0000 C   0  0  0  0  0  0  0  0  0  0  0  0
    3.4641   -3.0000    0.0000 C   0  0  0  0  0  0  0  0  0  0  0  0
    4.3301   -2.5000    0.0000 C   0  0  0  0  0  0  0  0  0  0  0  0
    5.1962   -3.0000    0.0000 O   0  0  0  0  0  0  0  0  0  0  0  0
    4.3301   -1.5000    0.0000 C   0  0  0  0  0  0  0  0  0  0  0  0
    3.4641   -1.0000    0.0000 C   0  0  0  0  0  0  0  0  0  0  0  0
    0.0000   -1.0000    0.0000 C   0  0  0  0  0  0  0  0  0  0  0  0
   -0.8660   -1.5000    0.0000 C   0  0  0  0  0  0  0  0  0  0  0  0
   -1.7321   -1.0000    0.0000 C   0  0  0  0  0  0  0  0  0  0  0  0
   -1.7321   -0.0000    0.0000 C   0  0  0  0  0  0  0  0  0  0  0  0
   -2.5981    0.5000    0.0000 O   0  0  0  0  0  0  0  0  0  0  0  0
   -0.8660    0.5000    0.0000 C   0  0  0  0  0  0  0  0  0  0  0  0
    0.0000    0.0000    0.0000 C   0  0  0  0  0  0  0  0  0  0  0  0
  1  2  1  0  0  0  0
  2  3  1  0  0  0  0
  3  4  2  0  0  0  0
  3 14  1  0  0  0  0
  4  5  1  0  0  0  0
  4  7  1  0  0  0  0
  5  6  1  0  0  0  0
  7 13  1  0  0  0  0
  7  8  2  0  0  0  0
  8  9  1  0  0  0  0
  9 10  2  0  0  0  0
 10 11  1  0  0  0  0
 10 12  1  0  0  0  0
 12 13  2  0  0  0  0
 14 20  1  0  0  0  0
 14 15  2  0  0  0  0
 15 16  1  0  0  0  0
 16 17  2  0  0  0  0
 17 18  1  0  0  0  0
 17 19  1  0  0  0  0
 19 20  2  0  0  0  0
M  END
$$$$

 OpenBabel10082008492D

 25 26  0  0  1  0  0  0  0  0999 V2000
    0.8660    3.5000    0.0000 N   0  0  0  0  0  0  0  0  0  0  0  0
    0.8660    2.5000    0.0000 C   0  0  2  0  0  0  0  0  0  0  0  0
   -0.1340    2.5000    0.0000 H   0  0  0  0  0  0  0  0  0  0  0  0
    0.8660    1.5000    0.0000 C   0  0  0  0  0  0  0  0  0  0  0  0
    0.0000    1.0000    0.0000 C   0  0  0  0  0  0  0  0  0  0  0  0
   -0.8660    1.5000    0.0000 C   0  0  0  0  0  0  0  0  0  0  0  0
   -1.7321    1.0000    0.0000 C   0  0  0  0  0  0  0  0  0  0  0  0
   -2.5981    1.5000    0.0000 I   0  0  0  0  0  0  0  0  0  0  0  0
   -1.7321    0.0000    0.0000 C   0  0  0  0  0  0  0  0  0  0  0  0
   -2.5981   -0.5000    0.0000 O   0  0  0  0  0  0  0  0  0  0  0  0
   -3.4641    0.0000    0.0000 C   0  0  0  0  0  0  0  0  0  0  0  0
   -3.4641    1.0000    0.0000 C   0  0  0  0  0  0  0  0  0  0  0  0
   -4.3301    1.5000    0.0000 C   0  0  0  0  0  0  0  0  0  0  0  0
   -4.3301    2.5000    0.0000 I   0  0  0  0  0  0  0  0  0  0  0  0
   -5.1962    1.0000    0.0000 C   0  0  0  0  0  0  0  0  0  0  0  0
   -6.0622    1.5000    0.0000 O   0  0  0  0  0  0  0  0  0  0  0  0
   -5.1962    0.0000    0.0000 C   0  0  0  0  0  0  0  0  0  0  0  0
   -6.0622   -0.5000    0.0000 I   0  0  0  0  0  0  0  0  0  0  0  0
   -4.3301   -0.5000    0.0000 C   0  0  0  0  0  0  0  0  0  0  0  0
   -0.8660   -0.5000    0.0000 C   0  0  0  0  0  0  0  0  0  0  0  0
   -0.8660   -1.5000    0.0000 I   0  0  0  0  0  0  0  0  0  0  0  0
    0.0000   -0.0000    0.0000 C   0  0  0  0  0  0  0  0  0  0  0  0
    1.8660    2.5000    0.0000 C   0  0  0  0  0  0  0  0  0  0  0  0
    2.3660    1.6340    0.0000 O   0  0  0  0  0  0  0  0  0  0  0  0
    2.3660    3.3660    0.0000 O   0  0  0  0  0  0  0  0  0  0  0  0
  1  2  1  0  0  0  0
  2  3  1  6  0  0  0
  2  4  1  0  0  0  0
  2 23  1  0  0  0  0
  4  5  1  0  0  0  0
  5 22  1  0  0  0  0
  5  6  2  0  0  0  0
  6  7  1  0  0  0  0
  7  8  1  0  0  0  0
  7  9  2  0  0  0  0
  9 10  1  0  0  0  0
  9 20  1  0  0  0  0
 10 11  1  0  0  0  0
 11 19  1  0  0  0  0
 11 12  2  0  0  0  0
 12 13  1  0  0  0  0
 13 14  1  0  0  0  0
 13 15  2  0  0  0  0
 15 16  1  0  0  0  0
 15 17  1  0  0  0  0
 17 18  1  0  0  0  0
 17 19  2  0  0  0  0
 20 21  1  0  0  0  0
 20 22  2  0  0  0  0
 23 24  2  0  0  0  0
 23 25  1  0  0  0  0
M  END
$$$$

 OpenBabel10082008492D

 25 28  0  0  1  0  0  0  0  0999 V2000
   -1.7321   -2.0000    0.0000 N   0  0  0  0  0  0  0  0  0  0  0  0
   -0.8660   -1.5000    0.0000 C   0  0  0  0  0  0  0  0  0  0  0  0
   -0.0000   -2.0000    0.0000 O   0  0  0  0  0  0  0  0  0  0  0  0
   -0.8660   -0.5000    0.0000 C   0  0  0  0  0  0  0  0  0  0  0  0
   -1.7321   -0.0000    0.0000 C   0  0  0  0  0  0  0  0  0  0  0  0
   -1.7321    1.0000    0.0000 C   0  0  0  0  0  0  0  0  0  0  0  0
   -0.8660    1.5000    0.0000 C   0  0  0  0  0  0  0  0  0  0  0  0
    0.0000    1.0000    0.0000 C   0  0  0  0  0  0  0  0  0  0  0  0
    0.9511    1.3090    0.0000 C   0  0  0  0  0  0  0  0  0  0  0  0
    1.5388    0.5000    0.0000 N   0  0  0  0  0  0  0  0  0  0  0  0
    2.5388    0.5000    0.0000 C   0  0  0  0  0  0  0  0  0  0  0  0
    3.0388    1.3660    0.0000 C   0  0  0  0  0  0  0  0  0  0  0  0
    4.0388    1.3660    0.0000 C   0  0  0  0  0  0  0  0  0  0  0  0
    4.5388    0.5000    0.0000 C   0  0  0  0  0  0  0  0  0  0  0  0
    5.5388    0.5000    0.0000 C   0  0  2  0  0  0  0  0  0  0  0  0
    5.9215    1.4239    0.0000 H   0  0  0  0  0  0  0  0  0  0  0  0
    6.5048    0.7588    0.0000 C   0  0  0  0  0  0  0  0  0  0  0  0
    7.2119    0.0517    0.0000 C   0  0  0  0  0  0  0  0  0  0  0  0
    6.9531   -0.9142    0.0000 C   0  0  0  0  0  0  0  0  0  0  0  0
    5.9871   -1.1730    0.0000 N   0  0  0  0  0  0  0  0  0  0  0  0
    5.2800   -0.4659    0.0000 C   0  0  0  0  0  0  0  0  0  0  0  0
    4.0388   -0.3660    0.0000 C   0  0  0  0  0  0  0  0  0  0  0  0
    3.0388   -0.3660    0.0000 C   0  0  0  0  0  0  0  0  0  0  0  0
    0.9511   -0.3090    0.0000 N   0  0  0  0  0  0  0  0  0  0  0  0
    0.0000   -0.0000    0.0000 C   0  0  0  0  0  0  0  0  0  0  0  0
  1  2  1  0  0  0  0
  2  3  2  0  0  0  0
  2  4  1  0  0  0  0
  4 25  1  0  0  0  0
  4  5  2  0  0  0  0
  5  6  1  0  0  0  0
  6  7  2  0  0  0  0
  7  8  1  0  0  0  0
  8 25  1  0  0  0  0
  8  9  2  0  0  0  0
  9 10  1  0  0  0  0
 10 11  1  0  0  0  0
 10 24  1  0  0  0  0
 11 23  1  0  0  0  0
 11 12  2  0  0  0  0
 12 13  1  0  0  0  0
 13 14  2  0  0  0  0
 14 15  1  0  0  0  0
 14 22  1  0  0  0  0
 15 16  1  1  0  0  0
 15 21  1  0  0  0  0
 15 17  1  0  0  0  0
 17 18  1  0  0  0  0
 18 19  1  0  0  0  0
 19 20  1  0  0  0  0
 20 21  1  0  0  0  0
 22 23  2  0  0  0  0
 24 25  2  0  0  0  0
M  END
$$$$

 OpenBabel10082008492D

 25 27  0  0  1  0  0  0  0  0999 V2000
    2.8314    1.0219    0.0000 C   0  0  0  0  0  0  0  0  0  0  0  0
    1.8979    1.3803    0.0000 C   0  0  0  0  0  0  0  0  0  0  0  0
    1.7414    2.3680    0.0000 O   0  0  0  0  0  0  0  0  0  0  0  0
    1.1207    0.7510    0.0000 N   0  0  0  0  0  0  0  0  0  0  0  0
    1.2771   -0.2367    0.0000 C   0  0  0  0  0  0  0  0  0  0  0  0
    0.5000   -0.8660    0.0000 C   0  0  1  0  0  0  0  0  0  0  0  0
    0.9621   -1.7528    0.0000 H   0  0  0  0  0  0  0  0  0  0  0  0
   -0.1691   -1.6092    0.0000 C   0  0  0  0  0  0  0  0  0  0  0  0
   -1.0827   -1.2024    0.0000 N   0  0  0  0  0  0  0  0  0  0  0  0
   -1.9487   -1.7024    0.0000 C   0  0  0  0  0  0  0  0  0  0  0  0
   -1.9487   -2.7024    0.0000 C   0  0  0  0  0  0  0  0  0  0  0  0
   -2.8147   -3.2024    0.0000 C   0  0  0  0  0  0  0  0  0  0  0  0
   -3.6808   -2.7024    0.0000 C   0  0  0  0  0  0  0  0  0  0  0  0
   -4.5468   -3.2024    0.0000 N   0  0  0  0  0  0  0  0  0  0  0  0
   -4.5468   -4.2024    0.0000 C   0  0  0  0  0  0  0  0  0  0  0  0
   -5.4128   -4.7024    0.0000 C   0  0  0  0  0  0  0  0  0  0  0  0
   -6.2788   -4.2024    0.0000 O   0  0  0  0  0  0  0  0  0  0  0  0
   -6.2788   -3.2024    0.0000 C   0  0  0  0  0  0  0  0  0  0  0  0
   -5.4128   -2.7024    0.0000 C   0  0  0  0  0  0  0  0  0  0  0  0
   -3.6808   -1.7024    0.0000 C   0  0  0  0  0  0  0  0  0  0  0  0
   -4.5468   -1.2024    0.0000 F   0  0  0  0  0  0  0  0  0  0  0  0
   -2.8147   -1.2024    0.0000 C   0  0  0  0  0  0  0  0  0  0  0  0
   -0.9781   -0.2079    0.0000 C   0  0  0  0  0  0  0  0  0  0  0  0
   -1.7213    0.4612    0.0000 O   0  0  0  0  0  0  0  0  0  0  0  0
   -0.0000   -0.0000    0.0000 O   0  0  0  0  0  0  0  0  0  0  0  0
  1  2  1  0  0  0  0
  2  3  2  0  0  0  0
  2  4  1  0  0  0  0
  4  5  1  0  0  0  0
  5  6  1  0  0  0  0
  6  7  1  6  0  0  0
  6 25  1  0  0  0  0
  6  8  1  0  0  0  0
  8  9  1  0  0  0  0
  9 10  1  0  0  0  0
  9 23  1  0  0  0  0
 10 22  1  0  0  0  0
 10 11  2  0  0  0  0
 11 12  1  0  0  0  0
 12 13  2  0  0  0  0
 13 14  1  0  0  0  0
 13 20  1  0  0  0  0
 14 19  1  0  0  0  0
 14 15  1  0  0  0  0
 15 16  1  0  0  0  0
 16 17  1  0  0  0  0
 17 18  1  0  0  0  0
 18 19  1  0  0  0  0
 20 21  1  0  0  0  0
 20 22  2  0  0  0  0
 23 24  2  0  0  0  0
 23 25  1  0  0  0  0
M  END
$$$$

 OpenBabel10082008492D

 33 36  0  0  1  0  0  0  0  0999 V2000
    1.7071   -0.7071    0.0000 O   0  0  0  0  0  0  0  0  0  0  0  0
    1.0000   -0.0000    0.0000 C   0  0  0  0  0  0  0  0  0  0  0  0
   -0.0000   -0.0000    0.0000 C   0  0  2  0  0  0  0  0  0  0  0  0
   -0.9659   -0.2588    0.0000 H   0  0  0  0  0  0  0  0  0  0  0  0
   -0.2588   -0.9659    0.0000 C   0  0  0  0  0  0  0  0  0  0  0  0
   -1.2247   -1.2247    0.0000 C   0  0  0  0  0  0  0  0  0  0  0  0
   -1.4836   -2.1907    0.0000 C   0  0  2  0  0  0  0  0  0  0  0  0
   -1.2247   -3.1566    0.0000 H   0  0  0  0  0  0  0  0  0  0  0  0
   -0.5176   -2.4495    0.0000 O   0  0  0  0  0  0  0  0  0  0  0  0
   -2.4495   -2.4495    0.0000 C   0  0  0  0  0  0  0  0  0  0  0  0
   -2.7083   -3.4154    0.0000 C   0  0  0  0  0  0  0  0  0  0  0  0
   -3.6742   -3.6742    0.0000 C   0  0  0  0  0  0  0  0  0  0  0  0
   -4.3813   -2.9671    0.0000 C   0  0  0  0  0  0  0  0  0  0  0  0
   -5.3473   -3.2259    0.0000 F   0  0  0  0  0  0  0  0  0  0  0  0
   -4.1225   -2.0012    0.0000 C   0  0  0  0  0  0  0  0  0  0  0  0
   -3.1566   -1.7424    0.0000 C   0  0  0  0  0  0  0  0  0  0  0  0
   -0.0000    1.0000    0.0000 C   0  0  1  0  0  0  0  0  0  0  0  0
   -0.2588    1.9659    0.0000 H   0  0  0  0  0  0  0  0  0  0  0  0
   -0.9659    1.2588    0.0000 C   0  0  0  0  0  0  0  0  0  0  0  0
   -1.6730    0.5517    0.0000 C   0  0  0  0  0  0  0  0  0  0  0  0
   -2.6390    0.8105    0.0000 C   0  0  0  0  0  0  0  0  0  0  0  0
   -2.8978    1.7765    0.0000 C   0  0  0  0  0  0  0  0  0  0  0  0
   -3.8637    2.0353    0.0000 O   0  0  0  0  0  0  0  0  0  0  0  0
   -2.1907    2.4836    0.0000 C   0  0  0  0  0  0  0  0  0  0  0  0
   -1.2247    2.2247    0.0000 C   0  0  0  0  0  0  0  0  0  0  0  0
    1.0000    1.0000    0.0000 N   0  0  0  0  0  0  0  0  0  0  0  0
    1.7071    1.7071    0.0000 C   0  0  0  0  0  0  0  0  0  0  0  0
    1.4483    2.6730    0.0000 C   0  0  0  0  0  0  0  0  0  0  0  0
    2.1554    3.3801    0.0000 C   0  0  0  0  0  0  0  0  0  0  0  0
    3.1213    3.1213    0.0000 C   0  0  0  0  0  0  0  0  0  0  0  0
    3.8284    3.8284    0.0000 F   0  0  0  0  0  0  0  0  0  0  0  0
    3.3801    2.1554    0.0000 C   0  0  0  0  0  0  0  0  0  0  0  0
    2.6730    1.4483    0.0000 C   0  0  0  0  0  0  0  0  0  0  0  0
  1  2  2  0  0  0  0
  2 26  1  0  0  0  0
  2  3  1  0  0  0  0
  3  4  1  1  0  0  0
  3  5  1  0  0  0  0
  3 17  1  0  0  0  0
  5  6  1  0  0  0  0
  6  7  1  0  0  0  0
  7  8  1  1  0  0  0
  7  9  1  0  0  0  0
  7 10  1  0  0  0  0
 10 16  1  0  0  0  0
 10 11  2  0  0  0  0
 11 12  1  0  0  0  0
 12 13  2  0  0  0  0
 13 14  1  0  0  0  0
 13 15  1  0  0  0  0
 15 16  2  0  0  0  0
 17 18  1  6  0  0  0
 17 19  1  0  0  0  0
 17 26  1  0  0  0  0
 19 25  1  0  0  0  0
 19 20  2  0  0  0  0
 20 21  1  0  0  0  0
 21 22  2  0  0  0  0
 22 23  1  0  0  0  0
 22 24  1  0  0  0  0
 24 25  2  0  0  0  0
 26 27  1  0  0  0  0
 27 33  1  0  0  0  0
 27 28  2  0  0  0  0
 28 29  1  0  0  0  0
 29 30  2  0  0  0  0
 30 31  1  0  0  0  0
 30 32  1  0  0  0  0
 32 33  2  0  0  0  0
M  END
$$$$

 OpenBabel10082008492D

 72 80  0  0  1  0  0  0  0  0999 V2000
   -8.5470   -8.4452    0.0000 C   0  0  0  0  0  0  0  0  0  0  0  0
   -7.5470   -8.4452    0.0000 O   0  0  0  0  0  0  0  0  0  0  0  0
   -7.0470   -7.5792    0.0000 C   0  0  0  0  0  0  0  0  0  0  0  0
   -7.5470   -6.7132    0.0000 O   0  0  0  0  0  0  0  0  0  0  0  0
   -6.0470   -7.5792    0.0000 N   0  0  0  0  0  0  0  0  0  0  0  0
   -5.5470   -6.7132    0.0000 C   0  0  2  0  0  0  0  0  0  0  0  0
   -6.4130   -6.2132    0.0000 H   0  0  0  0  0  0  0  0  0  0  0  0
   -5.0470   -5.8472    0.0000 C   0  0  0  0  0  0  0  0  0  0  0  0
   -5.5470   -4.9811    0.0000 O   0  0  0  0  0  0  0  0  0  0  0  0
   -4.0470   -5.8472    0.0000 N   0  0  0  0  0  0  0  0  0  0  0  0
   -3.4592   -6.6562    0.0000 C   0  0  0  0  0  0  0  0  0  0  0  0
   -2.5082   -6.3472    0.0000 C   0  0  0  0  0  0  0  0  0  0  0  0
   -2.5082   -5.3472    0.0000 C   0  0  0  0  0  0  0  0  0  0  0  0
   -3.4592   -5.0381    0.0000 C   0  0  1  0  0  0  0  0  0  0  0  0
   -4.2024   -4.3690    0.0000 H   0  0  0  0  0  0  0  0  0  0  0  0
   -3.2513   -4.0600    0.0000 C   0  0  0  0  0  0  0  0  0  0  0  0
   -2.3378   -3.6533    0.0000 N   0  0  0  0  0  0  0  0  0  0  0  0
   -2.4423   -2.6587    0.0000 C   0  0  0  0  0  0  0  0  0  0  0  0
   -1.6991   -1.9896    0.0000 C   0  0  0  0  0  0  0  0  0  0  0  0
   -0.7481   -2.2986    0.0000 C   0  0  0  0  0  0  0  0  0  0  0  0
   -0.0049   -1.6295    0.0000 C   0  0  0  0  0  0  0  0  0  0  0  0
   -0.2129   -0.6513    0.0000 C   0  0  0  0  0  0  0  0  0  0  0  0
   -1.1639   -0.3423    0.0000 C   0  0  0  0  0  0  0  0  0  0  0  0
   -1.9071   -1.0115    0.0000 C   0  0  0  0  0  0  0  0  0  0  0  0
   -1.3718    0.6358    0.0000 O   0  0  0  0  0  0  0  0  0  0  0  0
   -0.6287    1.3050    0.0000 C   0  0  1  0  0  0  0  0  0  0  0  0
   -1.2978    2.0481    0.0000 H   0  0  0  0  0  0  0  0  0  0  0  0
   -0.3197    2.2560    0.0000 C   0  0  0  0  0  0  0  0  0  0  0  0
    0.6585    2.4639    0.0000 C   0  0  0  0  0  0  0  0  0  0  0  0
    0.9675    3.4150    0.0000 C   0  0  0  0  0  0  0  0  0  0  0  0
    0.2984    4.1581    0.0000 C   0  0  0  0  0  0  0  0  0  0  0  0
   -0.6798    3.9502    0.0000 C   0  0  0  0  0  0  0  0  0  0  0  0
   -0.9888    2.9992    0.0000 C   0  0  0  0  0  0  0  0  0  0  0  0
    0.3224    0.9959    0.0000 N   0  0  0  0  0  0  0  0  0  0  0  0
    0.5303    0.0178    0.0000 C   0  0  0  0  0  0  0  0  0  0  0  0
    1.5248   -0.0867    0.0000 C   0  0  0  0  0  0  0  0  0  0  0  0
    1.9315    0.8268    0.0000 C   0  0  0  0  0  0  0  0  0  0  0  0
    2.8826    1.1358    0.0000 C   0  0  0  0  0  0  0  0  0  0  0  0
    3.0905    2.1140    0.0000 C   0  0  0  0  0  0  0  0  0  0  0  0
    0.9615   -0.0000    0.0000 C   0  0  0  0  0  0  0  0  0  0  0  0
    1.2587   -0.9145    0.0000 C   0  0  0  0  0  0  0  0  0  0  0  0
    0.4808   -1.4797    0.0000 N   0  0  0  0  0  0  0  0  0  0  0  0
    0.4808   -2.4412    0.0000 H   0  0  0  0  0  0  0  0  0  0  0  0
   -0.2971   -0.9145    0.0000 C   0  0  0  0  0  0  0  0  0  0  0  0
   -2.1261   -1.5087    0.0000 C   0  0  2  0  0  0  0  0  0  0  0  0
   -2.0168   -2.4641    0.0000 H   0  0  0  0  0  0  0  0  0  0  0  0
   -2.9828   -1.9453    0.0000 C   0  0  0  0  0  0  0  0  0  0  0  0
   -3.6627   -1.2654    0.0000 C   0  0  0  0  0  0  0  0  0  0  0  0
   -3.2262   -0.4086    0.0000 C   0  0  0  0  0  0  0  0  0  0  0  0
   -2.2765   -0.5590    0.0000 N   0  0  0  0  0  0  0  0  0  0  0  0
   -1.5966    0.1209    0.0000 C   0  0  0  0  0  0  0  0  0  0  0  0
   -0.6678   -0.1280    0.0000 O   0  0  0  0  0  0  0  0  0  0  0  0
   -1.8455    1.0496    0.0000 C   0  0  1  0  0  0  0  0  0  0  0  0
   -2.7860    0.8497    0.0000 H   0  0  0  0  0  0  0  0  0  0  0  0
   -2.0454    1.9902    0.0000 N   0  0  0  0  0  0  0  0  0  0  0  0
   -2.9599    2.2873    0.0000 C   0  0  0  0  0  0  0  0  0  0  0  0
   -3.1598    3.2278    0.0000 O   0  0  0  0  0  0  0  0  0  0  0  0
   -3.6744    1.6439    0.0000 O   0  0  0  0  0  0  0  0  0  0  0  0
   -4.5889    1.9410    0.0000 C   0  0  0  0  0  0  0  0  0  0  0  0
   -0.9049    1.2496    0.0000 C   0  0  0  0  0  0  0  0  0  0  0  0
   -0.6078    2.1640    0.0000 C   0  0  0  0  0  0  0  0  0  0  0  0
   -0.2615    0.5350    0.0000 C   0  0  0  0  0  0  0  0  0  0  0  0
    0.0000   -0.0000    0.0000 N   0  0  0  0  0  0  0  0  0  0  0  0
    2.3474    2.7831    0.0000 C   0  0  0  0  0  0  0  0  0  0  0  0
    1.3963    2.4741    0.0000 C   0  0  0  0  0  0  0  0  0  0  0  0
    1.1884    1.4959    0.0000 C   0  0  0  0  0  0  0  0  0  0  0  0
   -3.4204   -2.4508    0.0000 C   0  0  0  0  0  0  0  0  0  0  0  0
   -3.9204   -3.3168    0.0000 N   0  0  0  0  0  0  0  0  0  0  0  0
   -4.9150   -3.4214    0.0000 H   0  0  0  0  0  0  0  0  0  0  0  0
   -4.6810   -7.2132    0.0000 C   0  0  0  0  0  0  0  0  0  0  0  0
   -3.8150   -6.7132    0.0000 C   0  0  0  0  0  0  0  0  0  0  0  0
   -4.6810   -8.2132    0.0000 C   0  0  0  0  0  0  0  0  0  0  0  0
  1  2  1  0  0  0  0
  2  3  1  0  0  0  0
  3  4  2  0  0  0  0
  3  5  1  0  0  0  0
  5  6  1  0  0  0  0
  6  7  1  1  0  0  0
  6  8  1  0  0  0  0
  6 70  1  0  0  0  0
  8  9  2  0  0  0  0
  8 10  1  0  0  0  0
 10 14  1  0  0  0  0
 10 11  1  0  0  0  0
 11 12  1  0  0  0  0
 12 13  1  0  0  0  0
 13 14  1  0  0  0  0
 14 15  1  1  0  0  0
 14 16  1  0  0  0  0
 16 68  1  0  0  0  0
 16 17  2  0  0  0  0
 17 18  1  0  0  0  0
 18 19  1  0  0  0  0
 18 67  2  0  0  0  0
 19 24  1  0  0  0  0
 19 20  2  0  0  0  0
 20 21  1  0  0  0  0
 21 22  2  0  0  0  0
 22 35  1  0  0  0  0
 22 23  1  0  0  0  0
 23 24  2  0  0  0  0
 23 25  1  0  0  0  0
 25 26  1  0  0  0  0
 26 27  1  6  0  0  0
 26 28  1  0  0  0  0
 26 34  1  0  0  0  0
 28 33  1  0  0  0  0
 28 29  2  0  0  0  0
 29 30  1  0  0  0  0
 30 31  2  0  0  0  0
 31 32  1  0  0  0  0
 32 33  2  0  0  0  0
 34 66  1  0  0  0  0
 34 35  1  0  0  0  0
 35 36  2  0  0  0  0
 36 37  1  0  0  0  0
 37 66  1  0  0  0  0
 37 38  2  0  0  0  0
 38 39  1  0  0  0  0
 39 40  1  0  0  0  0
 39 64  2  0  0  0  0
 40 63  1  0  0  0  0
 40 41  2  0  0  0  0
 41 42  1  0  0  0  0
 42 43  1  0  0  0  0
 42 44  1  0  0  0  0
 44 45  1  0  0  0  0
 44 63  2  0  0  0  0
 45 46  1  1  0  0  0
 45 50  1  0  0  0  0
 45 47  1  0  0  0  0
 47 48  1  0  0  0  0
 48 49  1  0  0  0  0
 49 50  1  0  0  0  0
 50 51  1  0  0  0  0
 51 52  2  0  0  0  0
 51 53  1  0  0  0  0
 53 54  1  6  0  0  0
 53 55  1  0  0  0  0
 53 60  1  0  0  0  0
 55 56  1  0  0  0  0
 56 57  2  0  0  0  0
 56 58  1  0  0  0  0
 58 59  1  0  0  0  0
 60 61  1  0  0  0  0
 60 62  1  0  0  0  0
 64 65  1  0  0  0  0
 65 66  2  0  0  0  0
 67 68  1  0  0  0  0
 68 69  1  0  0  0  0
 70 71  1  0  0  0  0
 70 72  1  0  0  0  0
M  END
$$$$

 OpenBabel10082008492D

 17 17  0  0  1  0  0  0  0  0999 V2000
    1.7321    2.0000    0.0000 C   0  0  0  0  0  0  0  0  0  0  0  0
    0.8660    1.5000    0.0000 O   0  0  0  0  0  0  0  0  0  0  0  0
    0.8660    0.5000    0.0000 C   0  0  0  0  0  0  0  0  0  0  0  0
    1.7321    0.0000    0.0000 C   0  0  0  0  0  0  0  0  0  0  0  0
    1.7321   -1.0000    0.0000 C   0  0  0  0  0  0  0  0  0  0  0  0
    0.8660   -1.5000    0.0000 C   0  0  0  0  0  0  0  0  0  0  0  0
    0.0000   -1.0000    0.0000 C   0  0  0  0  0  0  0  0  0  0  0  0
    0.0000   -0.0000    0.0000 C   0  0  0  0  0  0  0  0  0  0  0  0
   -0.8660    0.5000    0.0000 O   0  0  0  0  0  0  0  0  0  0  0  0
   -1.7321   -0.0000    0.0000 C   0  0  0  0  0  0  0  0  0  0  0  0
   -1.7321   -1.0000    0.0000 C   0  0  3  0  0  0  0  0  0  0  0  0
   -2.5981   -1.5000    0.0000 O   0  0  0  0  0  0  0  0  0  0  0  0
   -0.8660   -1.5000    0.0000 C   0  0  0  0  0  0  0  0  0  0  0  0
   -0.8660   -2.5000    0.0000 O   0  0  0  0  0  0  0  0  0  0  0  0
    0.0000   -3.0000    0.0000 C   0  0  0  0  0  0  0  0  0  0  0  0
    0.0000   -4.0000    0.0000 N   0  0  0  0  0  0  0  0  0  0  0  0
    0.8660   -2.5000    0.0000 O   0  0  0  0  0  0  0  0  0  0  0  0
  1  2  1  0  0  0  0
  2  3  1  0  0  0  0
  3  8  1  0  0  0  0
  3  4  2  0  0  0  0
  4  5  1  0  0  0  0
  5  6  2  0  0  0  0
  6  7  1  0  0  0  0
  7  8  2  0  0  0  0
  8  9  1  0  0  0  0
  9 10  1  0  0  0  0
 10 11  1  0  0  0  0
 11 12  1  0  0  0  0
 11 13  1  0  0  0  0
 13 14  1  0  0  0  0
 14 15  1  0  0  0  0
 15 16  1  0  0  0  0
 15 17  2  0  0  0  0
M  END
$$$$

 OpenBabel10082008492D

 19 20  0  0  1  0  0  0  0  0999 V2000
    1.6496    1.9048    0.0000 C   0  0  0  0  0  0  0  0  0  0  0  0
    1.6496    2.8571    0.0000 C   0  0  0  0  0  0  0  0  0  0  0  0
    0.8248    3.3333    0.0000 N   0  0  0  0  0  0  0  0  0  0  0  0
    0.8248    4.2857    0.0000 C   0  0  0  0  0  0  0  0  0  0  0  0
    0.0000    4.7619    0.0000 C   0  0  0  0  0  0  0  0  0  0  0  0
    0.0000    2.8571    0.0000 C   0  0  0  0  0  0  0  0  0  0  0  0
   -0.8248    3.3333    0.0000 O   0  0  0  0  0  0  0  0  0  0  0  0
    0.0000    0.9524    0.0000 C   0  0  1  0  0  0  0  0  0  0  0  0
   -0.8248    1.4286    0.0000 C   0  0  0  0  0  0  0  0  0  0  0  0
   -1.6496    0.9524    0.0000 C   0  0  0  0  0  0  0  0  0  0  0  0
   -2.4744    1.4286    0.0000 C   0  0  0  0  0  0  0  0  0  0  0  0
   -2.4744    2.3810    0.0000 C   0  0  0  0  0  0  0  0  0  0  0  0
   -1.6496    2.8571    0.0000 C   0  0  0  0  0  0  0  0  0  0  0  0
   -0.8248    2.3810    0.0000 C   0  0  0  0  0  0  0  0  0  0  0  0
    0.8248    0.4762    0.0000 C   0  0  0  0  0  0  0  0  0  0  0  0
   -0.0000   -0.0000    0.0000 C   0  0  1  0  0  0  0  0  0  0  0  0
   -0.8248   -0.4762    0.0000 H   0  0  0  0  0  0  0  0  0  0  0  0
   -0.0000   -0.9524    0.0000 C   0  0  0  0  0  0  0  0  0  0  0  0
   -0.8248   -1.4286    0.0000 N   0  0  0  0  0  0  0  0  0  0  0  0
  1  2  1  0  0  0  0
  2  3  1  0  0  0  0
  3  4  1  0  0  0  0
  3  6  1  0  0  0  0
  4  5  1  0  0  0  0
  6  7  2  0  0  0  0
  8  6  1  1  0  0  0
  8 16  1  0  0  0  0
  8  9  1  0  0  0  0
  8 15  1  0  0  0  0
  9 14  1  0  0  0  0
  9 10  2  0  0  0  0
 10 11  1  0  0  0  0
 11 12  2  0  0  0  0
 12 13  1  0  0  0  0
 13 14  2  0  0  0  0
 15 16  1  0  0  0  0
 16 17  1  6  0  0  0
 16 18  1  0  0  0  0
 18 19  1  0  0  0  0
M  END
$$$$

 OpenBabel10082008492D

 35 37  0  0  0  0  0  0  0  0999 V2000
   -4.0000   -6.1962    0.0000 C   0  0  0  0  0  0  0  0  0  0  0  0
   -4.5000   -5.3301    0.0000 C   0  0  0  0  0  0  0  0  0  0  0  0
   -4.0000   -4.4641    0.0000 C   0  0  0  0  0  0  0  0  0  0  0  0
   -5.5000   -5.3301    0.0000 N   0  0  0  0  0  0  0  0  0  0  0  0
   -6.0000   -4.4641    0.0000 C   0  0  0  0  0  0  0  0  0  0  0  0
   -5.5000   -3.5981    0.0000 C   0  0  0  0  0  0  0  0  0  0  0  0
   -4.5000   -3.5981    0.0000 C   0  0  0  0  0  0  0  0  0  0  0  0
   -4.0000   -2.7321    0.0000 C   0  0  0  0  0  0  0  0  0  0  0  0
   -3.0000   -2.7321    0.0000 O   0  0  0  0  0  0  0  0  0  0  0  0
   -2.5000   -1.8660    0.0000 C   0  0  0  0  0  0  0  0  0  0  0  0
   -1.5000   -1.8660    0.0000 C   0  0  0  0  0  0  0  0  0  0  0  0
   -1.0000   -2.7321    0.0000 O   0  0  0  0  0  0  0  0  0  0  0  0
   -1.0000   -1.0000    0.0000 N   0  0  0  0  0  0  0  0  0  0  0  0
    0.0000   -1.0000    0.0000 S   0  0  0  0  0  0  0  0  0  0  0  0
   -0.0000   -2.0000    0.0000 C   0  0  0  0  0  0  0  0  0  0  0  0
    1.0000   -1.0000    0.0000 O   0  0  0  0  0  0  0  0  0  0  0  0
   -0.0000   -0.0000    0.0000 O   0  0  0  0  0  0  0  0  0  0  0  0
   -6.0000   -6.1962    0.0000 C   0  0  0  0  0  0  0  0  0  0  0  0
   -5.5000   -7.0622    0.0000 C   0  0  0  0  0  0  0  0  0  0  0  0
   -6.0000   -7.9282    0.0000 N   0  0  0  0  0  0  0  0  0  0  0  0
   -7.0000   -7.9282    0.0000 C   0  0  0  0  0  0  0  0  0  0  0  0
   -7.5000   -8.7942    0.0000 C   0  0  0  0  0  0  0  0  0  0  0  0
   -7.0000   -9.6603    0.0000 C   0  0  0  0  0  0  0  0  0  0  0  0
   -7.5000  -10.5263    0.0000 C   0  0  0  0  0  0  0  0  0  0  0  0
   -8.5000  -10.5263    0.0000 C   0  0  0  0  0  0  0  0  0  0  0  0
   -9.0000   -9.6603    0.0000 C   0  0  0  0  0  0  0  0  0  0  0  0
   -8.5000   -8.7942    0.0000 C   0  0  0  0  0  0  0  0  0  0  0  0
   -7.5000   -7.0622    0.0000 C   0  0  0  0  0  0  0  0  0  0  0  0
   -8.5000   -7.0622    0.0000 C   0  0  0  0  0  0  0  0  0  0  0  0
   -9.0000   -7.9282    0.0000 C   0  0  0  0  0  0  0  0  0  0  0  0
  -10.0000   -7.9282    0.0000 C   0  0  0  0  0  0  0  0  0  0  0  0
  -10.5000   -7.0622    0.0000 C   0  0  0  0  0  0  0  0  0  0  0  0
  -10.0000   -6.1962    0.0000 C   0  0  0  0  0  0  0  0  0  0  0  0
   -9.0000   -6.1962    0.0000 C   0  0  0  0  0  0  0  0  0  0  0  0
   -7.0000   -6.1962    0.0000 N   0  0  0  0  0  0  0  0  0  0  0  0
  1  2  1  0  0  0  0
  2  3  1  0  0  0  0
  2  4  1  0  0  0  0
  4  5  1  0  0  0  0
  4 18  1  0  0  0  0
  5  6  1  0  0  0  0
  6  7  1  0  0  0  0
  7  8  1  0  0  0  0
  8  9  1  0  0  0  0
  9 10  1  0  0  0  0
 10 11  1  0  0  0  0
 11 12  2  0  0  0  0
 11 13  1  0  0  0  0
 13 14  1  0  0  0  0
 14 15  1  0  0  0  0
 14 16  2  0  0  0  0
 14 17  2  0  0  0  0
 18 35  1  0  0  0  0
 18 19  2  0  0  0  0
 19 20  1  0  0  0  0
 20 21  2  0  0  0  0
 21 22  1  0  0  0  0
 21 28  1  0  0  0  0
 22 27  1  0  0  0  0
 22 23  2  0  0  0  0
 23 24  1  0  0  0  0
 24 25  2  0  0  0  0
 25 26  1  0  0  0  0
 26 27  2  0  0  0  0
 28 29  1  0  0  0  0
 28 35  2  0  0  0  0
 29 34  1  0  0  0  0
 29 30  2  0  0  0  0
 30 31  1  0  0  0  0
 31 32  2  0  0  0  0
 32 33  1  0  0  0  0
 33 34  2  0  0  0  0
M  END
$$$$

 OpenBabel10082008492D

 24 26  0  0  0  0  0  0  0  0999 V2000
   -5.0486    0.3546    0.0000 C   0  0  0  0  0  0  0  0  0  0  0  0
   -5.2565   -0.6236    0.0000 N   0  0  0  0  0  0  0  0  0  0  0  0
   -6.2076   -0.9326    0.0000 C   0  0  0  0  0  0  0  0  0  0  0  0
   -4.5134   -1.2927    0.0000 C   0  0  0  0  0  0  0  0  0  0  0  0
   -4.7213   -2.2708    0.0000 C   0  0  0  0  0  0  0  0  0  0  0  0
   -3.9781   -2.9400    0.0000 C   0  0  0  0  0  0  0  0  0  0  0  0
   -4.0827   -3.9345    0.0000 C   0  0  0  0  0  0  0  0  0  0  0  0
   -3.1691   -4.3412    0.0000 N   0  0  0  0  0  0  0  0  0  0  0  0
   -2.9612   -5.3194    0.0000 H   0  0  0  0  0  0  0  0  0  0  0  0
   -2.5000   -3.5981    0.0000 C   0  0  0  0  0  0  0  0  0  0  0  0
   -1.5000   -3.5981    0.0000 C   0  0  0  0  0  0  0  0  0  0  0  0
   -1.0000   -2.7321    0.0000 C   0  0  0  0  0  0  0  0  0  0  0  0
   -1.5000   -1.8660    0.0000 C   0  0  0  0  0  0  0  0  0  0  0  0
   -1.0000   -1.0000    0.0000 C   0  0  0  0  0  0  0  0  0  0  0  0
    0.0000   -1.0000    0.0000 S   0  0  0  0  0  0  0  0  0  0  0  0
   -0.0000   -2.0000    0.0000 O   0  0  0  0  0  0  0  0  0  0  0  0
    1.0000   -1.0000    0.0000 O   0  0  0  0  0  0  0  0  0  0  0  0
    0.0000   -0.0000    0.0000 N   0  0  0  0  0  0  0  0  0  0  0  0
   -0.8090    0.5878    0.0000 C   0  0  0  0  0  0  0  0  0  0  0  0
   -0.5000    1.5388    0.0000 C   0  0  0  0  0  0  0  0  0  0  0  0
    0.5000    1.5388    0.0000 C   0  0  0  0  0  0  0  0  0  0  0  0
    0.8090    0.5878    0.0000 C   0  0  0  0  0  0  0  0  0  0  0  0
   -2.5000   -1.8660    0.0000 C   0  0  0  0  0  0  0  0  0  0  0  0
   -3.0000   -2.7321    0.0000 C   0  0  0  0  0  0  0  0  0  0  0  0
  1  2  1  0  0  0  0
  2  3  1  0  0  0  0
  2  4  1  0  0  0  0
  4  5  1  0  0  0  0
  5  6  1  0  0  0  0
  6 24  1  0  0  0  0
  6  7  2  0  0  0  0
  7  8  1  0  0  0  0
  8  9  1  0  0  0  0
  8 10  1  0  0  0  0
 10 24  1  0  0  0  0
 10 11  2  0  0  0  0
 11 12  1  0  0  0  0
 12 13  2  0  0  0  0
 13 14  1  0  0  0  0
 13 23  1  0  0  0  0
 14 15  1  0  0  0  0
 15 16  2  0  0  0  0
 15 17  2  0  0  0  0
 15 18  1  0  0  0  0
 18 22  1  0  0  0  0
 18 19  1  0  0  0  0
 19 20  1  0  0  0  0
 20 21  1  0  0  0  0
 21 22  1  0  0  0  0
 23 24  2  0  0  0  0
M  END
$$$$

 OpenBabel10082008492D

 45 48  0  0  1  0  0  0  0  0999 V2000
   -0.4019   -4.2321    0.0000 C   0  0  0  0  0  0  0  0  0  0  0  0
   -1.2679   -4.7321    0.0000 C   0  0  0  0  0  0  0  0  0  0  0  0
   -1.2679   -5.7321    0.0000 C   0  0  0  0  0  0  0  0  0  0  0  0
   -0.4019   -6.2321    0.0000 O   0  0  0  0  0  0  0  0  0  0  0  0
   -2.1340   -6.2321    0.0000 C   0  0  0  0  0  0  0  0  0  0  0  0
   -3.0000   -5.7321    0.0000 C   0  0  0  0  0  0  0  0  0  0  0  0
   -3.0000   -4.7321    0.0000 C   0  0  0  0  0  0  0  0  0  0  0  0
   -2.1340   -4.2321    0.0000 C   0  0  0  0  0  0  0  0  0  0  0  0
   -2.1340   -3.2321    0.0000 C   0  0  0  0  0  0  0  0  0  0  0  0
   -1.2679   -2.7321    0.0000 O   0  0  0  0  0  0  0  0  0  0  0  0
   -3.0000   -2.7321    0.0000 N   0  0  0  0  0  0  0  0  0  0  0  0
   -3.0000   -1.7321    0.0000 C   0  0  1  0  0  0  0  0  0  0  0  0
   -4.0000   -1.7321    0.0000 H   0  0  0  0  0  0  0  0  0  0  0  0
   -3.0000   -0.7321    0.0000 C   0  0  0  0  0  0  0  0  0  0  0  0
   -3.8660   -0.2321    0.0000 S   0  0  0  0  0  0  0  0  0  0  0  0
   -4.7321   -0.7321    0.0000 C   0  0  0  0  0  0  0  0  0  0  0  0
   -5.5981   -0.2321    0.0000 C   0  0  0  0  0  0  0  0  0  0  0  0
   -6.4641   -0.7321    0.0000 C   0  0  0  0  0  0  0  0  0  0  0  0
   -6.4641   -1.7321    0.0000 C   0  0  0  0  0  0  0  0  0  0  0  0
   -5.5981   -2.2321    0.0000 C   0  0  0  0  0  0  0  0  0  0  0  0
   -4.7321   -1.7321    0.0000 C   0  0  0  0  0  0  0  0  0  0  0  0
   -2.0000   -1.7321    0.0000 C   0  0  2  0  0  0  0  0  0  0  0  0
   -1.1340   -2.2321    0.0000 H   0  0  0  0  0  0  0  0  0  0  0  0
   -2.0000   -2.7321    0.0000 O   0  0  0  0  0  0  0  0  0  0  0  0
   -1.5000   -0.8660    0.0000 C   0  0  0  0  0  0  0  0  0  0  0  0
   -0.5000   -0.8660    0.0000 N   0  0  0  0  0  0  0  0  0  0  0  0
    0.0000   -1.7321    0.0000 C   0  0  0  0  0  0  0  0  0  0  0  0
    1.0000   -1.7321    0.0000 C   0  0  1  0  0  0  0  0  0  0  0  0
    0.5000   -2.5981    0.0000 H   0  0  0  0  0  0  0  0  0  0  0  0
    1.5000   -2.5981    0.0000 C   0  0  0  0  0  0  0  0  0  0  0  0
    2.5000   -2.5981    0.0000 C   0  0  0  0  0  0  0  0  0  0  0  0
    3.0000   -1.7321    0.0000 C   0  0  0  0  0  0  0  0  0  0  0  0
    2.5000   -0.8660    0.0000 C   0  0  0  0  0  0  0  0  0  0  0  0
    1.5000   -0.8660    0.0000 C   0  0  1  0  0  0  0  0  0  0  0  0
    2.0000    0.0000    0.0000 H   0  0  0  0  0  0  0  0  0  0  0  0
    1.0000   -0.0000    0.0000 C   0  0  0  0  0  0  0  0  0  0  0  0
    0.0000   -0.0000    0.0000 C   0  0  1  0  0  0  0  0  0  0  0  0
   -0.8660    0.5000    0.0000 H   0  0  0  0  0  0  0  0  0  0  0  0
    0.0000    1.0000    0.0000 C   0  0  0  0  0  0  0  0  0  0  0  0
   -0.8660    1.5000    0.0000 O   0  0  0  0  0  0  0  0  0  0  0  0
    0.8660    1.5000    0.0000 N   0  0  0  0  0  0  0  0  0  0  0  0
    0.8660    2.5000    0.0000 C   0  0  0  0  0  0  0  0  0  0  0  0
    1.3660    3.3660    0.0000 C   0  0  0  0  0  0  0  0  0  0  0  0
    1.8660    2.5000    0.0000 C   0  0  0  0  0  0  0  0  0  0  0  0
    0.0000    3.0000    0.0000 C   0  0  0  0  0  0  0  0  0  0  0  0
  1  2  1  0  0  0  0
  2  8  1  0  0  0  0
  2  3  2  0  0  0  0
  3  4  1  0  0  0  0
  3  5  1  0  0  0  0
  5  6  2  0  0  0  0
  6  7  1  0  0  0  0
  7  8  2  0  0  0  0
  8  9  1  0  0  0  0
  9 10  2  0  0  0  0
  9 11  1  0  0  0  0
 11 12  1  0  0  0  0
 12 13  1  6  0  0  0
 12 14  1  0  0  0  0
 12 22  1  0  0  0  0
 14 15  1  0  0  0  0
 15 16  1  0  0  0  0
 16 21  1  0  0  0  0
 16 17  2  0  0  0  0
 17 18  1  0  0  0  0
 18 19  2  0  0  0  0
 19 20  1  0  0  0  0
 20 21  2  0  0  0  0
 22 23  1  6  0  0  0
 22 24  1  0  0  0  0
 22 25  1  0  0  0  0
 25 26  1  0  0  0  0
 26 37  1  0  0  0  0
 26 27  1  0  0  0  0
 27 28  1  0  0  0  0
 28 29  1  1  0  0  0
 28 34  1  0  0  0  0
 28 30  1  0  0  0  0
 30 31  1  0  0  0  0
 31 32  1  0  0  0  0
 32 33  1  0  0  0  0
 33 34  1  0  0  0  0
 34 35  1  1  0  0  0
 34 36  1  0  0  0  0
 36 37  1  0  0  0  0
 37 38  1  1  0  0  0
 37 39  1  0  0  0  0
 39 40  2  0  0  0  0
 39 41  1  0  0  0  0
 41 42  1  0  0  0  0
 42 43  1  0  0  0  0
 42 44  1  0  0  0  0
 42 45  1  0  0  0  0
M  END
$$$$

 OpenBabel10082008492D

 14 13  0  0  0  0  0  0  0  0999 V2000
    1.0000   -1.0000    0.0000 C   0  0  0  0  0  0  0  0  0  0  0  0
    1.0000   -0.0000    0.0000 S   0  0  0  0  0  0  0  0  0  0  0  0
    2.0000   -0.0000    0.0000 O   0  0  0  0  0  0  0  0  0  0  0  0
    1.0000    1.0000    0.0000 O   0  0  0  0  0  0  0  0  0  0  0  0
    0.0000    0.0000    0.0000 O   0  0  0  0  0  0  0  0  0  0  0  0
   -0.5000    0.8660    0.0000 C   0  0  0  0  0  0  0  0  0  0  0  0
   -1.5000    0.8660    0.0000 C   0  0  0  0  0  0  0  0  0  0  0  0
   -2.0000    1.7321    0.0000 C   0  0  0  0  0  0  0  0  0  0  0  0
   -3.0000    1.7321    0.0000 C   0  0  0  0  0  0  0  0  0  0  0  0
   -3.5000    2.5981    0.0000 O   0  0  0  0  0  0  0  0  0  0  0  0
   -4.5000    2.5981    0.0000 S   0  0  0  0  0  0  0  0  0  0  0  0
   -4.5000    3.5981    0.0000 C   0  0  0  0  0  0  0  0  0  0  0  0
   -5.5000    2.5981    0.0000 O   0  0  0  0  0  0  0  0  0  0  0  0
   -4.5000    1.5981    0.0000 O   0  0  0  0  0  0  0  0  0  0  0  0
  1  2  1  0  0  0  0
  2  3  2  0  0  0  0
  2  4  2  0  0  0  0
  2  5  1  0  0  0  0
  5  6  1  0  0  0  0
  6  7  1  0  0  0  0
  7  8  1  0  0  0  0
  8  9  1  0  0  0  0
  9 10  1  0  0  0  0
 10 11  1  0  0  0  0
 11 12  1  0  0  0  0
 11 13  2  0  0  0  0
 11 14  2  0  0  0  0
M  END
$$$$

 OpenBabel10082008492D

 19 20  0  0  0  0  0  0  0  0999 V2000
    4.3301   -0.5000    0.0000 C   0  0  0  0  0  0  0  0  0  0  0  0
    3.4641    0.0000    0.0000 C   0  0  0  0  0  0  0  0  0  0  0  0
    2.5981   -0.5000    0.0000 C   0  0  0  0  0  0  0  0  0  0  0  0
    1.7321   -0.0000    0.0000 S   0  0  0  0  0  0  0  0  0  0  0  0
    0.8660   -0.5000    0.0000 C   0  0  0  0  0  0  0  0  0  0  0  0
    0.8660   -1.5000    0.0000 C   0  0  0  0  0  0  0  0  0  0  0  0
    0.0000   -2.0000    0.0000 C   0  0  0  0  0  0  0  0  0  0  0  0
   -0.8660   -1.5000    0.0000 C   0  0  0  0  0  0  0  0  0  0  0  0
   -1.8171   -1.8090    0.0000 N   0  0  0  0  0  0  0  0  0  0  0  0
   -2.4049   -1.0000    0.0000 C   0  0  0  0  0  0  0  0  0  0  0  0
   -3.4049   -1.0000    0.0000 N   0  0  0  0  0  0  0  0  0  0  0  0
   -3.9049   -0.1340    0.0000 C   0  0  0  0  0  0  0  0  0  0  0  0
   -3.4049    0.7321    0.0000 O   0  0  0  0  0  0  0  0  0  0  0  0
   -4.9049   -0.1340    0.0000 O   0  0  0  0  0  0  0  0  0  0  0  0
   -5.4049    0.7321    0.0000 C   0  0  0  0  0  0  0  0  0  0  0  0
   -1.8171   -0.1910    0.0000 N   0  0  0  0  0  0  0  0  0  0  0  0
   -2.1261    0.7601    0.0000 H   0  0  0  0  0  0  0  0  0  0  0  0
   -0.8660   -0.5000    0.0000 C   0  0  0  0  0  0  0  0  0  0  0  0
    0.0000    0.0000    0.0000 C   0  0  0  0  0  0  0  0  0  0  0  0
  1  2  1  0  0  0  0
  2  3  1  0  0  0  0
  3  4  1  0  0  0  0
  4  5  1  0  0  0  0
  5 19  1  0  0  0  0
  5  6  2  0  0  0  0
  6  7  1  0  0  0  0
  7  8  2  0  0  0  0
  8 18  1  0  0  0  0
  8  9  1  0  0  0  0
  9 10  2  0  0  0  0
 10 11  1  0  0  0  0
 10 16  1  0  0  0  0
 11 12  1  0  0  0  0
 12 13  2  0  0  0  0
 12 14  1  0  0  0  0
 14 15  1  0  0  0  0
 16 17  1  0  0  0  0
 16 18  1  0  0  0  0
 18 19  2  0  0  0  0
M  END
$$$$

 OpenBabel10082008492D

 40 44  0  0  0  0  0  0  0  0999 V2000
   -1.0000   -1.0000    0.0000 C   0  0  0  0  0  0  0  0  0  0  0  0
    0.0000   -1.0000    0.0000 S   0  0  0  0  0  0  0  0  0  0  0  0
    0.0000   -2.0000    0.0000 O   0  0  0  0  0  0  0  0  0  0  0  0
    1.0000   -1.0000    0.0000 O   0  0  0  0  0  0  0  0  0  0  0  0
    0.0000    0.0000    0.0000 C   0  0  0  0  0  0  0  0  0  0  0  0
    0.8660    0.5000    0.0000 C   0  0  0  0  0  0  0  0  0  0  0  0
    0.8660    1.5000    0.0000 N   0  0  0  0  0  0  0  0  0  0  0  0
    1.7321    2.0000    0.0000 C   0  0  0  0  0  0  0  0  0  0  0  0
    1.7321    3.0000    0.0000 C   0  0  0  0  0  0  0  0  0  0  0  0
    0.9230    3.5878    0.0000 C   0  0  0  0  0  0  0  0  0  0  0  0
    1.2321    4.5388    0.0000 C   0  0  0  0  0  0  0  0  0  0  0  0
    2.2321    4.5388    0.0000 C   0  0  0  0  0  0  0  0  0  0  0  0
    2.8198    5.3479    0.0000 C   0  0  0  0  0  0  0  0  0  0  0  0
    2.4131    6.2614    0.0000 C   0  0  0  0  0  0  0  0  0  0  0  0
    3.0009    7.0704    0.0000 C   0  0  0  0  0  0  0  0  0  0  0  0
    3.9954    6.9659    0.0000 C   0  0  0  0  0  0  0  0  0  0  0  0
    4.5832    7.7749    0.0000 N   0  0  0  0  0  0  0  0  0  0  0  0
    5.5777    7.6704    0.0000 C   0  0  0  0  0  0  0  0  0  0  0  0
    5.9845    6.7568    0.0000 N   0  0  0  0  0  0  0  0  0  0  0  0
    5.3967    5.9478    0.0000 C   0  0  0  0  0  0  0  0  0  0  0  0
    5.8034    5.0343    0.0000 N   0  0  0  0  0  0  0  0  0  0  0  0
    6.7979    4.9297    0.0000 C   0  0  0  0  0  0  0  0  0  0  0  0
    7.3857    5.7388    0.0000 C   0  0  0  0  0  0  0  0  0  0  0  0
    8.3802    5.6342    0.0000 C   0  0  0  0  0  0  0  0  0  0  0  0
    8.7870    4.7207    0.0000 C   0  0  0  0  0  0  0  0  0  0  0  0
    9.7815    4.6162    0.0000 O   0  0  0  0  0  0  0  0  0  0  0  0
   10.3693    5.4252    0.0000 C   0  0  0  0  0  0  0  0  0  0  0  0
    9.9625    6.3387    0.0000 C   0  0  0  0  0  0  0  0  0  0  0  0
    8.9680    6.4433    0.0000 C   0  0  0  0  0  0  0  0  0  0  0  0
    8.5613    7.3568    0.0000 C   0  0  0  0  0  0  0  0  0  0  0  0
    9.1491    8.1658    0.0000 C   0  0  0  0  0  0  0  0  0  0  0  0
   10.1436    8.0613    0.0000 C   0  0  0  0  0  0  0  0  0  0  0  0
   10.7314    8.8703    0.0000 F   0  0  0  0  0  0  0  0  0  0  0  0
   10.5503    7.1477    0.0000 C   0  0  0  0  0  0  0  0  0  0  0  0
    8.1992    3.9117    0.0000 C   0  0  0  0  0  0  0  0  0  0  0  0
    8.6059    2.9981    0.0000 Cl  0  0  0  0  0  0  0  0  0  0  0  0
    7.2047    4.0162    0.0000 C   0  0  0  0  0  0  0  0  0  0  0  0
    4.4021    6.0523    0.0000 C   0  0  0  0  0  0  0  0  0  0  0  0
    3.8144    5.2433    0.0000 C   0  0  0  0  0  0  0  0  0  0  0  0
    2.5411    3.5878    0.0000 O   0  0  0  0  0  0  0  0  0  0  0  0
  1  2  1  0  0  0  0
  2  3  2  0  0  0  0
  2  4  2  0  0  0  0
  2  5  1  0  0  0  0
  5  6  1  0  0  0  0
  6  7  1  0  0  0  0
  7  8  1  0  0  0  0
  8  9  1  0  0  0  0
  9 40  1  0  0  0  0
  9 10  2  0  0  0  0
 10 11  1  0  0  0  0
 11 12  2  0  0  0  0
 12 13  1  0  0  0  0
 12 40  1  0  0  0  0
 13 39  1  0  0  0  0
 13 14  2  0  0  0  0
 14 15  1  0  0  0  0
 15 16  2  0  0  0  0
 16 38  1  0  0  0  0
 16 17  1  0  0  0  0
 17 18  2  0  0  0  0
 18 19  1  0  0  0  0
 19 20  2  0  0  0  0
 20 21  1  0  0  0  0
 20 38  1  0  0  0  0
 21 22  1  0  0  0  0
 22 37  1  0  0  0  0
 22 23  2  0  0  0  0
 23 24  1  0  0  0  0
 24 25  2  0  0  0  0
 25 26  1  0  0  0  0
 25 35  1  0  0  0  0
 26 27  1  0  0  0  0
 27 28  1  0  0  0  0
 28 34  1  0  0  0  0
 28 29  2  0  0  0  0
 29 30  1  0  0  0  0
 30 31  2  0  0  0  0
 31 32  1  0  0  0  0
 32 33  1  0  0  0  0
 32 34  2  0  0  0  0
 35 36  1  0  0  0  0
 35 37  2  0  0  0  0
 38 39  2  0  0  0  0
M  END
$$$$

 OpenBabel10082008492D

 23 25  0  0  0  0  0  0  0  0999 V2000
   -0.7202    3.6067    0.0000 C   0  0  0  0  0  0  0  0  0  0  0  0
   -1.3080    2.7976    0.0000 C   0  0  0  0  0  0  0  0  0  0  0  0
   -0.9013    1.8841    0.0000 C   0  0  0  0  0  0  0  0  0  0  0  0
    0.0933    1.7796    0.0000 C   0  0  0  0  0  0  0  0  0  0  0  0
    0.5000    0.8660    0.0000 C   0  0  0  0  0  0  0  0  0  0  0  0
    1.4781    0.6581    0.0000 C   0  0  0  0  0  0  0  0  0  0  0  0
    2.2213    1.3272    0.0000 O   0  0  0  0  0  0  0  0  0  0  0  0
    1.5827   -0.3364    0.0000 N   0  0  0  0  0  0  0  0  0  0  0  0
    2.4487   -0.8364    0.0000 C   0  0  0  0  0  0  0  0  0  0  0  0
    3.3147   -0.3364    0.0000 C   0  0  0  0  0  0  0  0  0  0  0  0
    4.1808   -0.8364    0.0000 C   0  0  0  0  0  0  0  0  0  0  0  0
    4.1808   -1.8364    0.0000 C   0  0  0  0  0  0  0  0  0  0  0  0
    3.3147   -2.3364    0.0000 C   0  0  0  0  0  0  0  0  0  0  0  0
    2.4487   -1.8364    0.0000 C   0  0  0  0  0  0  0  0  0  0  0  0
    0.6691   -0.7431    0.0000 N   0  0  0  0  0  0  0  0  0  0  0  0
    0.4612   -1.7213    0.0000 C   0  0  0  0  0  0  0  0  0  0  0  0
    1.2044   -2.3904    0.0000 C   0  0  0  0  0  0  0  0  0  0  0  0
    0.9965   -3.3686    0.0000 C   0  0  0  0  0  0  0  0  0  0  0  0
    0.0454   -3.6776    0.0000 C   0  0  0  0  0  0  0  0  0  0  0  0
   -0.6977   -3.0085    0.0000 C   0  0  0  0  0  0  0  0  0  0  0  0
   -0.4898   -2.0303    0.0000 C   0  0  0  0  0  0  0  0  0  0  0  0
    0.0000   -0.0000    0.0000 C   0  0  0  0  0  0  0  0  0  0  0  0
   -0.9945   -0.1045    0.0000 O   0  0  0  0  0  0  0  0  0  0  0  0
  1  2  1  0  0  0  0
  2  3  1  0  0  0  0
  3  4  1  0  0  0  0
  4  5  1  0  0  0  0
  5 22  1  0  0  0  0
  5  6  1  0  0  0  0
  6  7  2  0  0  0  0
  6  8  1  0  0  0  0
  8  9  1  0  0  0  0
  8 15  1  0  0  0  0
  9 14  1  0  0  0  0
  9 10  2  0  0  0  0
 10 11  1  0  0  0  0
 11 12  2  0  0  0  0
 12 13  1  0  0  0  0
 13 14  2  0  0  0  0
 15 16  1  0  0  0  0
 15 22  1  0  0  0  0
 16 21  1  0  0  0  0
 16 17  2  0  0  0  0
 17 18  1  0  0  0  0
 18 19  2  0  0  0  0
 19 20  1  0  0  0  0
 20 21  2  0  0  0  0
 22 23  2  0  0  0  0
M  END
$$$$

 OpenBabel10082008492D

  6  3  0  0  0  0  0  0  0  0999 V2000
    1.3660   -2.0000    0.0000 O   0  0  0  0  0  0  0  0  0  0  0  0
    1.3660   -1.0000    0.0000 C   0  0  0  0  0  0  0  0  0  0  0  0
    2.2321   -0.5000    0.0000 O   0  5  0  0  0  0  0  0  0  0  0  0
    0.5000   -0.5000    0.0000 O   0  5  0  0  0  0  0  0  0  0  0  0
   -1.6045   -0.4641    0.0000 Li  0  3  0  0  0 15  0  0  0  0  0  0
    3.2321   -0.5000    0.0000 Li  0  3  0  0  0 15  0  0  0  0  0  0
  1  2  2  0  0  0  0
  2  3  1  0  0  0  0
  2  4  1  0  0  0  0
M  CHG  4   3  -1   4  -1   5   1   6   1
M  END
$$$$

 OpenBabel10082008492D

 32 33  0  0  1  0  0  0  0  0999 V2000
    2.4945   -3.0294    0.0000 N   0  0  0  0  0  0  0  0  0  0  0  0
    2.4945   -2.0294    0.0000 C   0  0  0  0  0  0  0  0  0  0  0  0
    3.3605   -1.5294    0.0000 C   0  0  0  0  0  0  0  0  0  0  0  0
    3.3605   -0.5294    0.0000 C   0  0  0  0  0  0  0  0  0  0  0  0
    2.4945   -0.0294    0.0000 C   0  0  0  0  0  0  0  0  0  0  0  0
    2.4945    0.9706    0.0000 C   0  0  2  0  0  0  0  0  0  0  0  0
    3.4945    0.9706    0.0000 H   0  0  0  0  0  0  0  0  0  0  0  0
    2.4945    1.9706    0.0000 N   0  0  0  0  0  0  0  0  0  0  0  0
    3.3605    2.4706    0.0000 C   0  0  1  0  0  0  0  0  0  0  0  0
    3.8605    1.6045    0.0000 H   0  0  0  0  0  0  0  0  0  0  0  0
    4.2266    2.9706    0.0000 C   0  0  0  0  0  0  0  0  0  0  0  0
    5.0926    2.4706    0.0000 C   0  0  0  0  0  0  0  0  0  0  0  0
    5.0926    1.4706    0.0000 C   0  0  0  0  0  0  0  0  0  0  0  0
    5.9586    0.9706    0.0000 C   0  0  0  0  0  0  0  0  0  0  0  0
    5.9586   -0.0294    0.0000 C   0  0  0  0  0  0  0  0  0  0  0  0
    5.0926   -0.5294    0.0000 C   0  0  0  0  0  0  0  0  0  0  0  0
    4.2266   -0.0294    0.0000 C   0  0  0  0  0  0  0  0  0  0  0  0
    4.2266    0.9706    0.0000 C   0  0  0  0  0  0  0  0  0  0  0  0
    2.8605    3.3366    0.0000 C   0  0  0  0  0  0  0  0  0  0  0  0
    3.3605    4.2026    0.0000 O   0  0  0  0  0  0  0  0  0  0  0  0
    1.8605    3.3366    0.0000 O   0  0  0  0  0  0  0  0  0  0  0  0
    1.4945    0.9706    0.0000 C   0  0  0  0  0  0  0  0  0  0  0  0
    0.9945    1.8366    0.0000 O   0  0  0  0  0  0  0  0  0  0  0  0
    0.9945    0.1045    0.0000 N   0  0  0  0  0  0  0  0  0  0  0  0
    1.4013   -0.8090    0.0000 C   0  0  0  0  0  0  0  0  0  0  0  0
    0.6581   -1.4781    0.0000 C   0  0  0  0  0  0  0  0  0  0  0  0
   -0.2079   -0.9781    0.0000 C   0  0  0  0  0  0  0  0  0  0  0  0
   -0.0000   -0.0000    0.0000 C   0  0  1  0  0  0  0  0  0  0  0  0
   -0.2079    0.9781    0.0000 H   0  0  0  0  0  0  0  0  0  0  0  0
   -0.9511    0.3090    0.0000 C   0  0  0  0  0  0  0  0  0  0  0  0
   -1.1590    1.2872    0.0000 O   0  0  0  0  0  0  0  0  0  0  0  0
   -1.6942   -0.3601    0.0000 O   0  0  0  0  0  0  0  0  0  0  0  0
  1  2  1  0  0  0  0
  2  3  1  0  0  0  0
  3  4  1  0  0  0  0
  4  5  1  0  0  0  0
  5  6  1  0  0  0  0
  6  7  1  6  0  0  0
  6  8  1  0  0  0  0
  6 22  1  0  0  0  0
  8  9  1  0  0  0  0
  9 10  1  1  0  0  0
  9 11  1  0  0  0  0
  9 19  1  0  0  0  0
 11 12  1  0  0  0  0
 12 13  1  0  0  0  0
 13 18  1  0  0  0  0
 13 14  2  0  0  0  0
 14 15  1  0  0  0  0
 15 16  2  0  0  0  0
 16 17  1  0  0  0  0
 17 18  2  0  0  0  0
 19 20  2  0  0  0  0
 19 21  1  0  0  0  0
 22 23  2  0  0  0  0
 22 24  1  0  0  0  0
 24 28  1  0  0  0  0
 24 25  1  0  0  0  0
 25 26  1  0  0  0  0
 26 27  1  0  0  0  0
 27 28  1  0  0  0  0
 28 29  1  6  0  0  0
 28 30  1  0  0  0  0
 30 31  2  0  0  0  0
 30 32  1  0  0  0  0
M  END
$$$$

 OpenBabel10082008492D

 10 10  0  0  1  0  0  0  0  0999 V2000
    1.0370   -2.0411    0.0000 C   0  0  0  0  0  0  0  0  0  0  0  0
    0.6787   -1.1075    0.0000 C   0  0  0  0  0  0  0  0  0  0  0  0
   -0.3090   -0.9511    0.0000 C   0  0  3  0  0  0  0  0  0  0  0  0
   -0.6588   -1.8879    0.0000 C   0  0  0  0  0  0  0  0  0  0  0  0
   -1.3090   -0.9511    0.0000 C   0  0  0  0  0  0  0  0  0  0  0  0
   -1.6180   -0.0000    0.0000 C   0  0  0  0  0  0  0  0  0  0  0  0
   -2.5691    0.3090    0.0000 O   0  0  0  0  0  0  0  0  0  0  0  0
   -0.8090    0.5878    0.0000 N   0  0  0  0  0  0  0  0  0  0  0  0
   -0.0000   -0.0000    0.0000 C   0  0  0  0  0  0  0  0  0  0  0  0
    0.9511    0.3090    0.0000 O   0  0  0  0  0  0  0  0  0  0  0  0
  1  2  1  0  0  0  0
  2  3  1  0  0  0  0
  3  9  1  0  0  0  0
  3  4  1  0  0  0  0
  3  5  1  0  0  0  0
  5  6  1  0  0  0  0
  6  7  2  0  0  0  0
  6  8  1  0  0  0  0
  8  9  1  0  0  0  0
  9 10  2  0  0  0  0
M  END
$$$$

 OpenBabel10082008492D

 40 42  0  0  1  0  0  0  0  0999 V2000
    7.7942   -0.5000    0.0000 C   0  0  0  0  0  0  0  0  0  0  0  0
    6.9282    0.0000    0.0000 C   0  0  0  0  0  0  0  0  0  0  0  0
    6.0622   -0.5000    0.0000 C   0  0  0  0  0  0  0  0  0  0  0  0
    5.1962    0.0000    0.0000 C   0  0  0  0  0  0  0  0  0  0  0  0
    4.3301   -0.5000    0.0000 C   0  0  0  0  0  0  0  0  0  0  0  0
    3.4641    0.0000    0.0000 C   0  0  0  0  0  0  0  0  0  0  0  0
    2.5981   -0.5000    0.0000 O   0  0  0  0  0  0  0  0  0  0  0  0
    1.7321    0.0000    0.0000 C   0  0  1  0  0  0  0  0  0  0  0  0
    2.2321    0.8660    0.0000 H   0  0  0  0  0  0  0  0  0  0  0  0
    1.2321    0.8660    0.0000 C   0  0  0  0  0  0  0  0  0  0  0  0
    0.8660   -0.5000    0.0000 C   0  0  0  0  0  0  0  0  0  0  0  0
    0.8660   -1.5000    0.0000 C   0  0  0  0  0  0  0  0  0  0  0  0
   -0.0000   -2.0000    0.0000 C   0  0  0  0  0  0  0  0  0  0  0  0
   -0.8660   -1.5000    0.0000 C   0  0  0  0  0  0  0  0  0  0  0  0
   -0.8660   -0.5000    0.0000 C   0  0  0  0  0  0  0  0  0  0  0  0
   -1.7321    0.0000    0.0000 C   0  0  0  0  0  0  0  0  0  0  0  0
   -2.6456   -0.4067    0.0000 C   0  0  0  0  0  0  0  0  0  0  0  0
   -3.3147    0.3364    0.0000 S   0  0  0  0  0  0  0  0  0  0  0  0
   -2.8147    1.2024    0.0000 C   0  0  0  0  0  0  0  0  0  0  0  0
   -3.2215    2.1160    0.0000 N   0  0  0  0  0  0  0  0  0  0  0  0
   -4.2160    2.2205    0.0000 C   0  0  0  0  0  0  0  0  0  0  0  0
   -4.6227    3.1341    0.0000 O   0  0  0  0  0  0  0  0  0  0  0  0
   -4.8038    1.4115    0.0000 C   0  0  0  0  0  0  0  0  0  0  0  0
   -4.3970    0.4979    0.0000 C   0  0  0  0  0  0  0  0  0  0  0  0
   -4.9848   -0.3111    0.0000 C   0  0  0  0  0  0  0  0  0  0  0  0
   -4.5781   -1.2246    0.0000 Cl  0  0  0  0  0  0  0  0  0  0  0  0
   -5.9793   -0.2065    0.0000 C   0  0  0  0  0  0  0  0  0  0  0  0
   -6.5671   -1.0156    0.0000 C   0  0  0  0  0  0  0  0  0  0  0  0
   -7.5616   -0.9110    0.0000 C   0  0  0  0  0  0  0  0  0  0  0  0
   -7.9684    0.0025    0.0000 C   0  0  0  0  0  0  0  0  0  0  0  0
   -8.1494   -1.7200    0.0000 C   0  0  0  0  0  0  0  0  0  0  0  0
   -9.1440   -1.6155    0.0000 O   0  0  0  0  0  0  0  0  0  0  0  0
   -7.7427   -2.6336    0.0000 O   0  0  0  0  0  0  0  0  0  0  0  0
   -6.3861    0.7070    0.0000 C   0  0  0  0  0  0  0  0  0  0  0  0
   -7.3806    0.8115    0.0000 Cl  0  0  0  0  0  0  0  0  0  0  0  0
   -5.7983    1.5160    0.0000 C   0  0  0  0  0  0  0  0  0  0  0  0
   -1.8366    0.9945    0.0000 N   0  0  0  0  0  0  0  0  0  0  0  0
    0.0000    0.0000    0.0000 C   0  0  0  0  0  0  0  0  0  0  0  0
    0.0000    1.0000    0.0000 O   0  0  0  0  0  0  0  0  0  0  0  0
   -0.8660    1.5000    0.0000 C   0  0  0  0  0  0  0  0  0  0  0  0
  1  2  1  0  0  0  0
  2  3  1  0  0  0  0
  3  4  1  0  0  0  0
  4  5  1  0  0  0  0
  5  6  1  0  0  0  0
  6  7  1  0  0  0  0
  7  8  1  0  0  0  0
  8  9  1  1  0  0  0
  8 10  1  0  0  0  0
  8 11  1  0  0  0  0
 11 38  1  0  0  0  0
 11 12  2  0  0  0  0
 12 13  1  0  0  0  0
 13 14  2  0  0  0  0
 14 15  1  0  0  0  0
 15 16  1  0  0  0  0
 15 38  2  0  0  0  0
 16 37  1  0  0  0  0
 16 17  2  0  0  0  0
 17 18  1  0  0  0  0
 18 19  1  0  0  0  0
 19 20  1  0  0  0  0
 19 37  2  0  0  0  0
 20 21  1  0  0  0  0
 21 22  2  0  0  0  0
 21 23  1  0  0  0  0
 23 36  1  0  0  0  0
 23 24  2  0  0  0  0
 24 25  1  0  0  0  0
 25 26  1  0  0  0  0
 25 27  2  0  0  0  0
 27 28  1  0  0  0  0
 27 34  1  0  0  0  0
 28 29  2  0  0  0  0
 29 30  1  0  0  0  0
 29 31  1  0  0  0  0
 31 32  2  0  0  0  0
 31 33  1  0  0  0  0
 34 35  1  0  0  0  0
 34 36  2  0  0  0  0
 38 39  1  0  0  0  0
 39 40  1  0  0  0  0
M  END
$$$$

 OpenBabel10082008492D

 11 10  0  0  0  0  0  0  0  0999 V2000
    0.5000   -3.5000    0.0000 O   0  0  0  0  0  0  0  0  0  0  0  0
    1.3660   -4.0000    0.0000 C   0  0  0  0  0  0  0  0  0  0  0  0
    1.3660   -5.0000    0.0000 O   0  5  0  0  0  0  0  0  0  0  0  0
    2.2321   -3.5000    0.0000 C   0  0  0  0  0  0  0  0  0  0  0  0
    2.2321   -2.5000    0.0000 C   0  0  0  0  0  0  0  0  0  0  0  0
    1.3660   -2.0000    0.0000 C   0  0  0  0  0  0  0  0  0  0  0  0
    1.3660   -1.0000    0.0000 C   0  0  0  0  0  0  0  0  0  0  0  0
    2.2321   -0.5000    0.0000 C   0  0  0  0  0  0  0  0  0  0  0  0
    3.0981   -1.0000    0.0000 C   0  0  0  0  0  0  0  0  0  0  0  0
    3.0981   -2.0000    0.0000 C   0  0  0  0  0  0  0  0  0  0  0  0
   -2.4634   -0.1770    0.0000 Na  0  3  0  0  0 15  0  0  0  0  0  0
  1  2  2  0  0  0  0
  2  3  1  0  0  0  0
  2  4  1  0  0  0  0
  4  5  1  0  0  0  0
  5 10  1  0  0  0  0
  5  6  2  0  0  0  0
  6  7  1  0  0  0  0
  7  8  2  0  0  0  0
  8  9  1  0  0  0  0
  9 10  2  0  0  0  0
M  CHG  2   3  -1  11   1
M  END
$$$$

 OpenBabel10082008492D

  8  8  0  0  0  0  0  0  0  0999 V2000
   -0.8660   -1.5000    0.0000 N   0  0  0  0  0  0  0  0  0  0  0  0
   -0.8660   -0.5000    0.0000 C   0  0  0  0  0  0  0  0  0  0  0  0
   -1.7321   -0.0000    0.0000 C   0  0  0  0  0  0  0  0  0  0  0  0
   -1.7321    1.0000    0.0000 C   0  0  0  0  0  0  0  0  0  0  0  0
   -0.8660    1.5000    0.0000 N   0  0  0  0  0  0  0  0  0  0  0  0
   -0.0000    1.0000    0.0000 C   0  0  0  0  0  0  0  0  0  0  0  0
    0.0000    0.0000    0.0000 C   0  0  0  0  0  0  0  0  0  0  0  0
    0.8660   -0.5000    0.0000 N   0  0  0  0  0  0  0  0  0  0  0  0
  1  2  1  0  0  0  0
  2  7  1  0  0  0  0
  2  3  2  0  0  0  0
  3  4  1  0  0  0  0
  4  5  2  0  0  0  0
  5  6  1  0  0  0  0
  6  7  2  0  0  0  0
  7  8  1  0  0  0  0
M  END
$$$$

 OpenBabel10082008492D

 24 27  0  0  0  0  0  0  0  0999 V2000
    2.5981   -0.5000    0.0000 O   0  0  0  0  0  0  0  0  0  0  0  0
    1.7321    0.0000    0.0000 C   0  0  0  0  0  0  0  0  0  0  0  0
    1.7321    1.0000    0.0000 O   0  0  0  0  0  0  0  0  0  0  0  0
    0.8660   -0.5000    0.0000 C   0  0  0  0  0  0  0  0  0  0  0  0
    0.8660   -1.5000    0.0000 C   0  0  0  0  0  0  0  0  0  0  0  0
    0.0000   -2.0000    0.0000 N   0  0  0  0  0  0  0  0  0  0  0  0
    0.0000   -3.0000    0.0000 C   0  0  0  0  0  0  0  0  0  0  0  0
    0.5000   -3.8660    0.0000 C   0  0  0  0  0  0  0  0  0  0  0  0
   -0.5000   -3.8660    0.0000 C   0  0  0  0  0  0  0  0  0  0  0  0
   -0.8660   -1.5000    0.0000 C   0  0  0  0  0  0  0  0  0  0  0  0
   -1.7321   -2.0000    0.0000 C   0  0  0  0  0  0  0  0  0  0  0  0
   -2.5981   -1.5000    0.0000 C   0  0  0  0  0  0  0  0  0  0  0  0
   -3.4641   -2.0000    0.0000 N   0  0  0  0  0  0  0  0  0  0  0  0
   -3.4641   -3.0000    0.0000 C   0  0  0  0  0  0  0  0  0  0  0  0
   -4.3301   -3.5000    0.0000 C   0  0  0  0  0  0  0  0  0  0  0  0
   -5.1962   -3.0000    0.0000 N   0  0  0  0  0  0  0  0  0  0  0  0
   -5.1962   -2.0000    0.0000 C   0  0  0  0  0  0  0  0  0  0  0  0
   -4.3301   -1.5000    0.0000 C   0  0  0  0  0  0  0  0  0  0  0  0
   -2.5981   -0.5000    0.0000 C   0  0  0  0  0  0  0  0  0  0  0  0
   -3.4641   -0.0000    0.0000 F   0  0  0  0  0  0  0  0  0  0  0  0
   -1.7321   -0.0000    0.0000 C   0  0  0  0  0  0  0  0  0  0  0  0
   -0.8660   -0.5000    0.0000 C   0  0  0  0  0  0  0  0  0  0  0  0
   -0.0000   -0.0000    0.0000 C   0  0  0  0  0  0  0  0  0  0  0  0
   -0.0000    1.0000    0.0000 O   0  0  0  0  0  0  0  0  0  0  0  0
  1  2  2  0  0  0  0
  2  3  1  0  0  0  0
  2  4  1  0  0  0  0
  4 23  1  0  0  0  0
  4  5  2  0  0  0  0
  5  6  1  0  0  0  0
  6  7  1  0  0  0  0
  6 10  1  0  0  0  0
  7  9  1  0  0  0  0
  7  8  1  0  0  0  0
  8  9  1  0  0  0  0
 10 22  1  0  0  0  0
 10 11  2  0  0  0  0
 11 12  1  0  0  0  0
 12 13  1  0  0  0  0
 12 19  2  0  0  0  0
 13 18  1  0  0  0  0
 13 14  1  0  0  0  0
 14 15  1  0  0  0  0
 15 16  1  0  0  0  0
 16 17  1  0  0  0  0
 17 18  1  0  0  0  0
 19 20  1  0  0  0  0
 19 21  1  0  0  0  0
 21 22  2  0  0  0  0
 22 23  1  0  0  0  0
 23 24  2  0  0  0  0
M  END
$$$$

 OpenBabel10082008492D

 25 27  0  0  1  0  0  0  0  0999 V2000
    0.1589    1.2071    0.0000 C   0  0  0  0  0  0  0  0  0  0  0  0
    0.8660    0.5000    0.0000 N   0  3  0  0  0  0  0  0  0  0  0  0
    1.7899    0.8827    0.0000 C   0  0  0  0  0  0  0  0  0  0  0  0
    1.7321   -0.0000    0.0000 C   0  0  0  0  0  0  0  0  0  0  0  0
    1.7321   -1.0000    0.0000 C   0  0  0  0  0  0  0  0  0  0  0  0
    0.8660   -1.5000    0.0000 C   0  0  0  0  0  0  0  0  0  0  0  0
   -0.0000   -1.0000    0.0000 C   0  0  3  0  0  0  0  0  0  0  0  0
   -0.8660   -1.5000    0.0000 O   0  0  0  0  0  0  0  0  0  0  0  0
   -1.7321   -1.0000    0.0000 C   0  0  0  0  0  0  0  0  0  0  0  0
   -1.7321    0.0000    0.0000 O   0  0  0  0  0  0  0  0  0  0  0  0
   -2.5981   -1.5000    0.0000 C   0  0  0  0  0  0  0  0  0  0  0  0
   -3.0981   -0.6340    0.0000 O   0  0  0  0  0  0  0  0  0  0  0  0
   -3.4641   -2.0000    0.0000 C   0  0  0  0  0  0  0  0  0  0  0  0
   -3.4641   -3.0000    0.0000 C   0  0  0  0  0  0  0  0  0  0  0  0
   -4.3301   -3.5000    0.0000 C   0  0  0  0  0  0  0  0  0  0  0  0
   -5.1962   -3.0000    0.0000 C   0  0  0  0  0  0  0  0  0  0  0  0
   -5.1962   -2.0000    0.0000 C   0  0  0  0  0  0  0  0  0  0  0  0
   -4.3301   -1.5000    0.0000 C   0  0  0  0  0  0  0  0  0  0  0  0
   -2.0981   -2.3660    0.0000 C   0  0  0  0  0  0  0  0  0  0  0  0
   -1.0981   -2.3660    0.0000 C   0  0  0  0  0  0  0  0  0  0  0  0
   -0.5981   -3.2321    0.0000 C   0  0  0  0  0  0  0  0  0  0  0  0
   -1.0981   -4.0981    0.0000 C   0  0  0  0  0  0  0  0  0  0  0  0
   -2.0981   -4.0981    0.0000 C   0  0  0  0  0  0  0  0  0  0  0  0
   -2.5981   -3.2321    0.0000 C   0  0  0  0  0  0  0  0  0  0  0  0
    0.0000   -0.0000    0.0000 C   0  0  0  0  0  0  0  0  0  0  0  0
  1  2  1  0  0  0  0
  2 25  1  0  0  0  0
  2  3  1  0  0  0  0
  2  4  1  0  0  0  0
  4  5  1  0  0  0  0
  5  6  1  0  0  0  0
  6  7  1  0  0  0  0
  7  8  1  0  0  0  0
  7 25  1  0  0  0  0
  8  9  1  0  0  0  0
  9 10  2  0  0  0  0
  9 11  1  0  0  0  0
 11 12  1  0  0  0  0
 11 13  1  0  0  0  0
 11 19  1  0  0  0  0
 13 18  1  0  0  0  0
 13 14  2  0  0  0  0
 14 15  1  0  0  0  0
 15 16  2  0  0  0  0
 16 17  1  0  0  0  0
 17 18  2  0  0  0  0
 19 24  1  0  0  0  0
 19 20  2  0  0  0  0
 20 21  1  0  0  0  0
 21 22  2  0  0  0  0
 22 23  1  0  0  0  0
 23 24  2  0  0  0  0
M  CHG  1   2   1
M  END
$$$$

 OpenBabel10082008492D

 20 21  0  0  1  0  0  0  0  0999 V2000
    0.8660   -2.5000    0.0000 C   0  0  0  0  0  0  0  0  0  0  0  0
    0.8660   -1.5000    0.0000 O   0  0  0  0  0  0  0  0  0  0  0  0
    0.0000   -1.0000    0.0000 C   0  0  0  0  0  0  0  0  0  0  0  0
   -0.8660   -1.5000    0.0000 C   0  0  0  0  0  0  0  0  0  0  0  0
   -1.7321   -1.0000    0.0000 C   0  0  0  0  0  0  0  0  0  0  0  0
   -1.7321   -0.0000    0.0000 C   0  0  0  0  0  0  0  0  0  0  0  0
   -2.5981    0.5000    0.0000 C   0  0  3  0  0  0  0  0  0  0  0  0
   -2.5981    1.5000    0.0000 C   0  0  0  0  0  0  0  0  0  0  0  0
   -1.7321    2.0000    0.0000 N   0  0  0  0  0  0  0  0  0  0  0  0
   -1.7321    3.0000    0.0000 C   0  0  0  0  0  0  0  0  0  0  0  0
   -0.8660    1.5000    0.0000 C   0  0  0  0  0  0  0  0  0  0  0  0
   -3.4641    0.0000    0.0000 C   0  0  0  0  0  0  0  0  0  0  0  0
   -3.3336   -0.9914    0.0000 O   0  0  0  0  0  0  0  0  0  0  0  0
   -4.1712   -0.7071    0.0000 C   0  0  0  0  0  0  0  0  0  0  0  0
   -5.1371   -0.4483    0.0000 C   0  0  0  0  0  0  0  0  0  0  0  0
   -5.3960    0.5176    0.0000 C   0  0  0  0  0  0  0  0  0  0  0  0
   -4.6888    1.2247    0.0000 C   0  0  0  0  0  0  0  0  0  0  0  0
   -3.7229    0.9659    0.0000 C   0  0  0  0  0  0  0  0  0  0  0  0
   -0.8660    0.5000    0.0000 C   0  0  0  0  0  0  0  0  0  0  0  0
    0.0000    0.0000    0.0000 C   0  0  0  0  0  0  0  0  0  0  0  0
  1  2  1  0  0  0  0
  2  3  1  0  0  0  0
  3 20  1  0  0  0  0
  3  4  2  0  0  0  0
  4  5  1  0  0  0  0
  5  6  2  0  0  0  0
  6  7  1  0  0  0  0
  6 19  1  0  0  0  0
  7  8  1  0  0  0  0
  7 12  1  0  0  0  0
  8  9  1  0  0  0  0
  9 10  1  0  0  0  0
  9 11  1  0  0  0  0
 12 18  1  0  0  0  0
 12 13  1  0  0  0  0
 12 14  1  0  0  0  0
 14 15  1  0  0  0  0
 15 16  1  0  0  0  0
 16 17  1  0  0  0  0
 17 18  1  0  0  0  0
 19 20  2  0  0  0  0
M  END
$$$$

 OpenBabel10082008492D

 16 16  0  0  1  0  0  0  0  0999 V2000
    2.6333    0.0166    0.0000 C   0  0  0  0  0  0  0  0  0  0  0  0
    1.9678    0.6821    0.0000 C   0  0  0  0  0  0  0  0  0  0  0  0
    1.0587    0.4385    0.0000 C   0  0  0  0  0  0  0  0  0  0  0  0
    0.8151   -0.4706    0.0000 C   0  0  0  0  0  0  0  0  0  0  0  0
    2.3085   -1.6165    0.0000 C   0  0  3  0  0  0  0  0  0  0  0  0
    2.1856   -2.5496    0.0000 C   0  0  0  0  0  0  0  0  0  0  0  0
    3.1780   -1.2563    0.0000 C   0  0  0  0  0  0  0  0  0  0  0  0
    3.9247   -1.8293    0.0000 C   0  0  0  0  0  0  0  0  0  0  0  0
    0.8151   -1.4118    0.0000 C   0  0  0  0  0  0  0  0  0  0  0  0
    1.6302   -1.8824    0.0000 O   0  0  0  0  0  0  0  0  0  0  0  0
   -0.0000   -1.8824    0.0000 N   0  0  0  0  0  0  0  0  0  0  0  0
   -0.8151   -1.4118    0.0000 C   0  0  0  0  0  0  0  0  0  0  0  0
   -1.6302   -1.8824    0.0000 O   0  0  0  0  0  0  0  0  0  0  0  0
   -0.8151   -0.4706    0.0000 N   0  0  0  0  0  0  0  0  0  0  0  0
   -0.0000   -0.0000    0.0000 C   0  0  0  0  0  0  0  0  0  0  0  0
   -0.0000    0.9412    0.0000 O   0  0  0  0  0  0  0  0  0  0  0  0
  1  2  2  0  0  0  0
  2  3  1  0  0  0  0
  3  4  1  0  0  0  0
  4 15  1  0  0  0  0
  4  5  1  0  0  0  0
  4  9  1  0  0  0  0
  5  6  1  0  0  0  0
  5  7  1  0  0  0  0
  7  8  1  0  0  0  0
  9 10  2  0  0  0  0
  9 11  1  0  0  0  0
 11 12  1  0  0  0  0
 12 13  2  0  0  0  0
 12 14  1  0  0  0  0
 14 15  1  0  0  0  0
 15 16  2  0  0  0  0
M  END
$$$$

 OpenBabel10082008492D

 29 32  0  0  0  0  0  0  0  0999 V2000
    3.4641   -3.0000    0.0000 C   0  0  0  0  0  0  0  0  0  0  0  0
    3.4641   -2.0000    0.0000 C   0  0  0  0  0  0  0  0  0  0  0  0
    4.3301   -1.5000    0.0000 O   0  0  0  0  0  0  0  0  0  0  0  0
    2.5981   -1.5000    0.0000 C   0  0  0  0  0  0  0  0  0  0  0  0
    1.7321   -2.0000    0.0000 C   0  0  0  0  0  0  0  0  0  0  0  0
    0.8660   -1.5000    0.0000 C   0  0  0  0  0  0  0  0  0  0  0  0
    0.8660   -0.5000    0.0000 C   0  0  0  0  0  0  0  0  0  0  0  0
    1.7321   -0.0000    0.0000 C   0  0  0  0  0  0  0  0  0  0  0  0
    2.5981   -0.5000    0.0000 C   0  0  0  0  0  0  0  0  0  0  0  0
    1.7321    1.0000    0.0000 N   0  0  0  0  0  0  0  0  0  0  0  0
    2.5981    1.5000    0.0000 C   0  0  0  0  0  0  0  0  0  0  0  0
    2.5981    2.5000    0.0000 C   0  0  0  0  0  0  0  0  0  0  0  0
    3.4641    3.0000    0.0000 C   0  0  0  0  0  0  0  0  0  0  0  0
    4.3301    2.5000    0.0000 N   0  0  0  0  0  0  0  0  0  0  0  0
    5.1962    3.0000    0.0000 C   0  0  0  0  0  0  0  0  0  0  0  0
    6.0622    2.5000    0.0000 C   0  0  0  0  0  0  0  0  0  0  0  0
    6.0622    1.5000    0.0000 C   0  0  0  0  0  0  0  0  0  0  0  0
    6.9282    1.0000    0.0000 C   0  0  0  0  0  0  0  0  0  0  0  0
    7.7942    1.5000    0.0000 C   0  0  0  0  0  0  0  0  0  0  0  0
    8.6603    1.0000    0.0000 O   0  0  0  0  0  0  0  0  0  0  0  0
    5.1962    1.0000    0.0000 C   0  0  0  0  0  0  0  0  0  0  0  0
    4.3301    1.5000    0.0000 C   0  0  0  0  0  0  0  0  0  0  0  0
    0.8660    1.5000    0.0000 C   0  0  0  0  0  0  0  0  0  0  0  0
    0.8660    2.5000    0.0000 C   0  0  0  0  0  0  0  0  0  0  0  0
    0.0000    3.0000    0.0000 C   0  0  0  0  0  0  0  0  0  0  0  0
   -0.8660    2.5000    0.0000 C   0  0  0  0  0  0  0  0  0  0  0  0
   -0.8660    1.5000    0.0000 C   0  0  0  0  0  0  0  0  0  0  0  0
    0.0000    1.0000    0.0000 C   0  0  0  0  0  0  0  0  0  0  0  0
    0.0000    0.0000    0.0000 S   0  0  0  0  0  0  0  0  0  0  0  0
  1  2  1  0  0  0  0
  2  3  2  0  0  0  0
  2  4  1  0  0  0  0
  4  9  1  0  0  0  0
  4  5  2  0  0  0  0
  5  6  1  0  0  0  0
  6  7  2  0  0  0  0
  7 29  1  0  0  0  0
  7  8  1  0  0  0  0
  8  9  2  0  0  0  0
  8 10  1  0  0  0  0
 10 11  1  0  0  0  0
 10 23  1  0  0  0  0
 11 12  1  0  0  0  0
 12 13  1  0  0  0  0
 13 14  1  0  0  0  0
 14 22  1  0  0  0  0
 14 15  1  0  0  0  0
 15 16  1  0  0  0  0
 16 17  1  0  0  0  0
 17 18  1  0  0  0  0
 17 21  1  0  0  0  0
 18 19  1  0  0  0  0
 19 20  1  0  0  0  0
 21 22  1  0  0  0  0
 23 28  1  0  0  0  0
 23 24  2  0  0  0  0
 24 25  1  0  0  0  0
 25 26  2  0  0  0  0
 26 27  1  0  0  0  0
 27 28  2  0  0  0  0
 28 29  1  0  0  0  0
M  END
$$$$

 OpenBabel10082008492D

 23 25  0  0  0  0  0  0  0  0999 V2000
    1.7321    2.0000    0.0000 C   0  0  0  0  0  0  0  0  0  0  0  0
    0.8660    1.5000    0.0000 C   0  0  0  0  0  0  0  0  0  0  0  0
    0.8660    0.5000    0.0000 N   0  0  0  0  0  0  0  0  0  0  0  0
    1.7321    0.0000    0.0000 C   0  0  0  0  0  0  0  0  0  0  0  0
    1.7321   -1.0000    0.0000 C   0  0  0  0  0  0  0  0  0  0  0  0
    2.5981   -1.5000    0.0000 C   0  0  0  0  0  0  0  0  0  0  0  0
    2.5981   -2.5000    0.0000 O   0  0  0  0  0  0  0  0  0  0  0  0
    3.4641   -1.0000    0.0000 O   0  0  0  0  0  0  0  0  0  0  0  0
    0.8660   -1.5000    0.0000 C   0  0  0  0  0  0  0  0  0  0  0  0
    0.8660   -2.5000    0.0000 O   0  0  0  0  0  0  0  0  0  0  0  0
    0.0000   -1.0000    0.0000 C   0  0  0  0  0  0  0  0  0  0  0  0
   -0.8660   -1.5000    0.0000 C   0  0  0  0  0  0  0  0  0  0  0  0
   -1.7321   -1.0000    0.0000 C   0  0  0  0  0  0  0  0  0  0  0  0
   -2.5981   -1.5000    0.0000 F   0  0  0  0  0  0  0  0  0  0  0  0
   -1.7321   -0.0000    0.0000 C   0  0  0  0  0  0  0  0  0  0  0  0
   -2.5981    0.5000    0.0000 N   0  0  0  0  0  0  0  0  0  0  0  0
   -3.4641   -0.0000    0.0000 C   0  0  0  0  0  0  0  0  0  0  0  0
   -4.3301    0.5000    0.0000 C   0  0  0  0  0  0  0  0  0  0  0  0
   -4.3301    1.5000    0.0000 N   0  0  0  0  0  0  0  0  0  0  0  0
   -3.4641    2.0000    0.0000 C   0  0  0  0  0  0  0  0  0  0  0  0
   -2.5981    1.5000    0.0000 C   0  0  0  0  0  0  0  0  0  0  0  0
   -0.8660    0.5000    0.0000 N   0  0  0  0  0  0  0  0  0  0  0  0
    0.0000   -0.0000    0.0000 C   0  0  0  0  0  0  0  0  0  0  0  0
  1  2  1  0  0  0  0
  2  3  1  0  0  0  0
  3 23  1  0  0  0  0
  3  4  1  0  0  0  0
  4  5  2  0  0  0  0
  5  6  1  0  0  0  0
  5  9  1  0  0  0  0
  6  7  2  0  0  0  0
  6  8  1  0  0  0  0
  9 10  2  0  0  0  0
  9 11  1  0  0  0  0
 11 23  1  0  0  0  0
 11 12  2  0  0  0  0
 12 13  1  0  0  0  0
 13 14  1  0  0  0  0
 13 15  2  0  0  0  0
 15 16  1  0  0  0  0
 15 22  1  0  0  0  0
 16 21  1  0  0  0  0
 16 17  1  0  0  0  0
 17 18  1  0  0  0  0
 18 19  1  0  0  0  0
 19 20  1  0  0  0  0
 20 21  1  0  0  0  0
 22 23  2  0  0  0  0
M  END
$$$$

 OpenBabel10082008492D

 17 18  0  0  0  0  0  0  0  0999 V2000
   -1.5878   -0.8090    0.0000 C   0  0  0  0  0  0  0  0  0  0  0  0
   -1.0000    0.0000    0.0000 C   0  0  0  0  0  0  0  0  0  0  0  0
   -1.3090    0.9511    0.0000 C   0  0  0  0  0  0  0  0  0  0  0  0
   -0.5000    1.5388    0.0000 C   0  0  0  0  0  0  0  0  0  0  0  0
   -0.5000    2.5388    0.0000 C   0  0  0  0  0  0  0  0  0  0  0  0
    0.3660    3.0388    0.0000 O   0  0  0  0  0  0  0  0  0  0  0  0
   -1.3660    3.0388    0.0000 N   0  0  0  0  0  0  0  0  0  0  0  0
   -2.2321    2.5388    0.0000 N   0  0  0  0  0  0  0  0  0  0  0  0
   -3.0981    3.0388    0.0000 C   0  0  0  0  0  0  0  0  0  0  0  0
   -3.9641    2.5388    0.0000 C   0  0  0  0  0  0  0  0  0  0  0  0
   -3.9641    1.5388    0.0000 C   0  0  0  0  0  0  0  0  0  0  0  0
   -4.8301    1.0388    0.0000 C   0  0  0  0  0  0  0  0  0  0  0  0
   -5.6962    1.5388    0.0000 C   0  0  0  0  0  0  0  0  0  0  0  0
   -5.6962    2.5388    0.0000 C   0  0  0  0  0  0  0  0  0  0  0  0
   -4.8301    3.0388    0.0000 C   0  0  0  0  0  0  0  0  0  0  0  0
    0.3090    0.9511    0.0000 N   0  0  0  0  0  0  0  0  0  0  0  0
    0.0000    0.0000    0.0000 O   0  0  0  0  0  0  0  0  0  0  0  0
  1  2  1  0  0  0  0
  2 17  1  0  0  0  0
  2  3  2  0  0  0  0
  3  4  1  0  0  0  0
  4  5  1  0  0  0  0
  4 16  2  0  0  0  0
  5  6  2  0  0  0  0
  5  7  1  0  0  0  0
  7  8  1  0  0  0  0
  8  9  1  0  0  0  0
  9 10  1  0  0  0  0
 10 15  1  0  0  0  0
 10 11  2  0  0  0  0
 11 12  1  0  0  0  0
 12 13  2  0  0  0  0
 13 14  1  0  0  0  0
 14 15  2  0  0  0  0
 16 17  1  0  0  0  0
M  END
$$$$

 OpenBabel10082008492D

 19 20  0  0  0  0  0  0  0  0999 V2000
    0.1340   -2.5000    0.0000 C   0  0  0  0  0  0  0  0  0  0  0  0
    1.0000   -3.0000    0.0000 O   0  0  0  0  0  0  0  0  0  0  0  0
    1.8660   -2.5000    0.0000 C   0  0  0  0  0  0  0  0  0  0  0  0
    2.7321   -3.0000    0.0000 N   0  0  0  0  0  0  0  0  0  0  0  0
    3.5981   -2.5000    0.0000 C   0  0  0  0  0  0  0  0  0  0  0  0
    3.5981   -1.5000    0.0000 C   0  0  0  0  0  0  0  0  0  0  0  0
    2.7321   -1.0000    0.0000 N   0  0  0  0  0  0  0  0  0  0  0  0
    1.8660   -1.5000    0.0000 C   0  0  0  0  0  0  0  0  0  0  0  0
    1.0000   -1.0000    0.0000 N   0  0  0  0  0  0  0  0  0  0  0  0
    1.0000   -0.0000    0.0000 S   0  0  0  0  0  0  0  0  0  0  0  0
    2.0000    0.0000    0.0000 O   0  0  0  0  0  0  0  0  0  0  0  0
    1.0000    1.0000    0.0000 O   0  0  0  0  0  0  0  0  0  0  0  0
    0.0000   -0.0000    0.0000 C   0  0  0  0  0  0  0  0  0  0  0  0
   -0.5000   -0.8660    0.0000 C   0  0  0  0  0  0  0  0  0  0  0  0
   -1.5000   -0.8660    0.0000 C   0  0  0  0  0  0  0  0  0  0  0  0
   -2.0000   -0.0000    0.0000 C   0  0  0  0  0  0  0  0  0  0  0  0
   -3.0000   -0.0000    0.0000 N   0  0  0  0  0  0  0  0  0  0  0  0
   -1.5000    0.8660    0.0000 C   0  0  0  0  0  0  0  0  0  0  0  0
   -0.5000    0.8660    0.0000 C   0  0  0  0  0  0  0  0  0  0  0  0
  1  2  1  0  0  0  0
  2  3  1  0  0  0  0
  3  8  1  0  0  0  0
  3  4  2  0  0  0  0
  4  5  1  0  0  0  0
  5  6  2  0  0  0  0
  6  7  1  0  0  0  0
  7  8  2  0  0  0  0
  8  9  1  0  0  0  0
  9 10  1  0  0  0  0
 10 11  2  0  0  0  0
 10 12  2  0  0  0  0
 10 13  1  0  0  0  0
 13 19  1  0  0  0  0
 13 14  2  0  0  0  0
 14 15  1  0  0  0  0
 15 16  2  0  0  0  0
 16 17  1  0  0  0  0
 16 18  1  0  0  0  0
 18 19  2  0  0  0  0
M  END
$$$$

 OpenBabel10082008492D

 14 15  0  0  0  0  0  0  0  0999 V2000
   -1.0000   -1.0000    0.0000 N   0  0  0  0  0  0  0  0  0  0  0  0
    0.0000   -1.0000    0.0000 S   0  0  3  0  0  0  0  0  0  0  0  0
    0.0000   -2.0000    0.0000 O   0  0  0  0  0  0  0  0  0  0  0  0
    1.0000   -1.0000    0.0000 O   0  0  0  0  0  0  0  0  0  0  0  0
    0.0000    0.0000    0.0000 C   0  0  0  0  0  0  0  0  0  0  0  0
    0.8660    0.5000    0.0000 C   0  0  0  0  0  0  0  0  0  0  0  0
    0.9706    1.4945    0.0000 N   0  0  0  0  0  0  0  0  0  0  0  0
    1.9487    1.7024    0.0000 O   0  0  0  0  0  0  0  0  0  0  0  0
    2.4487    0.8364    0.0000 C   0  0  0  0  0  0  0  0  0  0  0  0
    3.4268    0.6285    0.0000 C   0  0  0  0  0  0  0  0  0  0  0  0
    3.7359   -0.3226    0.0000 C   0  0  0  0  0  0  0  0  0  0  0  0
    3.0667   -1.0657    0.0000 C   0  0  0  0  0  0  0  0  0  0  0  0
    2.0886   -0.8578    0.0000 C   0  0  0  0  0  0  0  0  0  0  0  0
    1.7796    0.0933    0.0000 C   0  0  0  0  0  0  0  0  0  0  0  0
  1  2  2  0  0  0  0
  2  3  2  0  0  0  0
  2  4  1  0  0  0  0
  2  5  1  0  0  0  0
  5  6  1  0  0  0  0
  6 14  1  0  0  0  0
  6  7  2  0  0  0  0
  7  8  1  0  0  0  0
  8  9  1  0  0  0  0
  9 14  1  0  0  0  0
  9 10  2  0  0  0  0
 10 11  1  0  0  0  0
 11 12  2  0  0  0  0
 12 13  1  0  0  0  0
 13 14  2  0  0  0  0
M  END
$$$$

 OpenBabel10082008492D

 24 24  0  0  1  0  0  0  0  0999 V2000
   -1.7321   -3.0000    0.0000 C   0  0  0  0  0  0  0  0  0  0  0  0
   -0.8660   -3.5000    0.0000 C   0  0  0  0  0  0  0  0  0  0  0  0
   -0.0000   -3.0000    0.0000 C   0  0  0  0  0  0  0  0  0  0  0  0
   -0.0000   -2.0000    0.0000 C   0  0  0  0  0  0  0  0  0  0  0  0
    0.8660   -1.5000    0.0000 O   0  0  0  0  0  0  0  0  0  0  0  0
   -0.8660   -1.5000    0.0000 N   0  0  0  0  0  0  0  0  0  0  0  0
   -0.8660   -0.5000    0.0000 C   0  0  0  0  0  0  0  0  0  0  0  0
   -1.7321   -0.0000    0.0000 C   0  0  0  0  0  0  0  0  0  0  0  0
   -1.7321    1.0000    0.0000 C   0  0  0  0  0  0  0  0  0  0  0  0
   -0.8660    1.5000    0.0000 C   0  0  0  0  0  0  0  0  0  0  0  0
   -0.8660    2.5000    0.0000 O   0  0  0  0  0  0  0  0  0  0  0  0
    0.0000    3.0000    0.0000 C   0  0  0  0  0  0  0  0  0  0  0  0
    0.0000    4.0000    0.0000 C   0  0  3  0  0  0  0  0  0  0  0  0
    0.8660    4.5000    0.0000 O   0  0  0  0  0  0  0  0  0  0  0  0
   -0.8660    4.5000    0.0000 C   0  0  0  0  0  0  0  0  0  0  0  0
   -0.8660    5.5000    0.0000 N   0  0  0  0  0  0  0  0  0  0  0  0
    0.0000    6.0000    0.0000 C   0  0  0  0  0  0  0  0  0  0  0  0
    0.8660    5.5000    0.0000 C   0  0  0  0  0  0  0  0  0  0  0  0
    0.0000    7.0000    0.0000 C   0  0  0  0  0  0  0  0  0  0  0  0
   -0.0000    1.0000    0.0000 C   0  0  0  0  0  0  0  0  0  0  0  0
    0.8660    1.5000    0.0000 C   0  0  0  0  0  0  0  0  0  0  0  0
    1.7321    1.0000    0.0000 C   0  0  0  0  0  0  0  0  0  0  0  0
    0.8660    2.5000    0.0000 O   0  0  0  0  0  0  0  0  0  0  0  0
    0.0000   -0.0000    0.0000 C   0  0  0  0  0  0  0  0  0  0  0  0
  1  2  1  0  0  0  0
  2  3  1  0  0  0  0
  3  4  1  0  0  0  0
  4  5  2  0  0  0  0
  4  6  1  0  0  0  0
  6  7  1  0  0  0  0
  7 24  1  0  0  0  0
  7  8  2  0  0  0  0
  8  9  1  0  0  0  0
  9 10  2  0  0  0  0
 10 11  1  0  0  0  0
 10 20  1  0  0  0  0
 11 12  1  0  0  0  0
 12 13  1  0  0  0  0
 13 14  1  0  0  0  0
 13 15  1  0  0  0  0
 15 16  1  0  0  0  0
 16 17  1  0  0  0  0
 17 18  1  0  0  0  0
 17 19  1  0  0  0  0
 20 21  1  0  0  0  0
 20 24  2  0  0  0  0
 21 22  1  0  0  0  0
 21 23  2  0  0  0  0
M  END
$$$$

 OpenBabel10082008492D

 37 41  0  0  0  0  0  0  0  0999 V2000
   -0.8454    2.4405    0.0000 C   0  0  0  0  0  0  0  0  0  0  0  0
   -0.8454    1.4643    0.0000 O   0  0  0  0  0  0  0  0  0  0  0  0
    0.0000    0.9762    0.0000 C   0  0  0  0  0  0  0  0  0  0  0  0
    0.8454    1.4643    0.0000 C   0  0  0  0  0  0  0  0  0  0  0  0
    1.6908    0.9762    0.0000 C   0  0  0  0  0  0  0  0  0  0  0  0
    2.5362    1.4643    0.0000 N   0  0  0  0  0  0  0  0  0  0  0  0
    3.3816    0.9762    0.0000 C   0  0  0  0  0  0  0  0  0  0  0  0
    3.3816   -0.0000    0.0000 C   0  0  0  0  0  0  0  0  0  0  0  0
    2.5362   -0.4881    0.0000 C   0  0  0  0  0  0  0  0  0  0  0  0
    2.5362   -1.4643    0.0000 O   0  0  0  0  0  0  0  0  0  0  0  0
    3.3816   -1.9524    0.0000 C   0  0  0  0  0  0  0  0  0  0  0  0
    4.2270   -1.4643    0.0000 C   0  0  0  0  0  0  0  0  0  0  0  0
    5.0724   -1.9524    0.0000 C   0  0  0  0  0  0  0  0  0  0  0  0
    5.0724   -2.9286    0.0000 C   0  0  0  0  0  0  0  0  0  0  0  0
    5.9178   -3.4167    0.0000 N   0  0  0  0  0  0  0  0  0  0  0  0
    6.7632   -2.9286    0.0000 C   0  0  0  0  0  0  0  0  0  0  0  0
    7.6087   -3.4167    0.0000 O   0  0  0  0  0  0  0  0  0  0  0  0
    6.7632   -0.9762    0.0000 C   0  0  0  0  0  0  0  0  0  0  0  0
    7.6087   -1.4643    0.0000 C   0  0  0  0  0  0  0  0  0  0  0  0
    7.6087   -2.4405    0.0000 O   0  0  0  0  0  0  0  0  0  0  0  0
    8.4541   -0.9762    0.0000 N   0  0  0  0  0  0  0  0  0  0  0  0
    8.4541   -0.0000    0.0000 C   0  0  0  0  0  0  0  0  0  0  0  0
    7.6087    0.4881    0.0000 C   0  0  0  0  0  0  0  0  0  0  0  0
    7.6087    1.4643    0.0000 C   0  0  0  0  0  0  0  0  0  0  0  0
    8.4541    1.9524    0.0000 C   0  0  0  0  0  0  0  0  0  0  0  0
    8.4541    2.9286    0.0000 F   0  0  0  0  0  0  0  0  0  0  0  0
    9.2995    1.4643    0.0000 C   0  0  0  0  0  0  0  0  0  0  0  0
    9.2995    0.4881    0.0000 C   0  0  0  0  0  0  0  0  0  0  0  0
    5.9178   -0.4881    0.0000 C   0  0  0  0  0  0  0  0  0  0  0  0
    6.7632   -0.0000    0.0000 C   0  0  0  0  0  0  0  0  0  0  0  0
    4.2270   -3.4167    0.0000 C   0  0  0  0  0  0  0  0  0  0  0  0
    3.3816   -2.9286    0.0000 C   0  0  0  0  0  0  0  0  0  0  0  0
    1.6908   -0.0000    0.0000 C   0  0  0  0  0  0  0  0  0  0  0  0
    0.8454   -0.4881    0.0000 C   0  0  0  0  0  0  0  0  0  0  0  0
    0.0000   -0.0000    0.0000 C   0  0  0  0  0  0  0  0  0  0  0  0
   -0.8454   -0.4881    0.0000 O   0  0  0  0  0  0  0  0  0  0  0  0
   -1.6908    0.0000    0.0000 C   0  0  0  0  0  0  0  0  0  0  0  0
  1  2  1  0  0  0  0
  2  3  1  0  0  0  0
  3 35  1  0  0  0  0
  3  4  2  0  0  0  0
  4  5  1  0  0  0  0
  5 33  1  0  0  0  0
  5  6  2  0  0  0  0
  6  7  1  0  0  0  0
  7  8  2  0  0  0  0
  8  9  1  0  0  0  0
  9 10  1  0  0  0  0
  9 33  2  0  0  0  0
 10 11  1  0  0  0  0
 11 32  1  0  0  0  0
 11 12  2  0  0  0  0
 12 13  1  0  0  0  0
 13 14  2  0  0  0  0
 14 15  1  0  0  0  0
 14 31  1  0  0  0  0
 15 16  1  0  0  0  0
 16 17  2  0  0  0  0
 16 18  1  0  0  0  0
 18 30  1  0  0  0  0
 18 19  1  0  0  0  0
 18 29  1  0  0  0  0
 19 20  2  0  0  0  0
 19 21  1  0  0  0  0
 21 22  1  0  0  0  0
 22 28  1  0  0  0  0
 22 23  2  0  0  0  0
 23 24  1  0  0  0  0
 24 25  2  0  0  0  0
 25 26  1  0  0  0  0
 25 27  1  0  0  0  0
 27 28  2  0  0  0  0
 29 30  1  0  0  0  0
 31 32  2  0  0  0  0
 33 34  1  0  0  0  0
 34 35  2  0  0  0  0
 35 36  1  0  0  0  0
 36 37  1  0  0  0  0
M  END
$$$$

 OpenBabel10082008492D

 20 22  0  0  1  0  0  0  0  0999 V2000
    2.1549    4.0426    0.0000 C   0  0  0  0  0  0  0  0  0  0  0  0
    1.6103    3.2039    0.0000 C   0  0  0  0  0  0  0  0  0  0  0  0
    2.0643    2.3129    0.0000 C   0  0  0  0  0  0  0  0  0  0  0  0
    3.0629    2.2606    0.0000 O   0  0  0  0  0  0  0  0  0  0  0  0
    1.5196    1.4742    0.0000 N   0  0  0  0  0  0  0  0  0  0  0  0
    1.9736    0.5832    0.0000 C   0  0  0  0  0  0  0  0  0  0  0  0
    2.9723    0.5309    0.0000 C   0  0  0  0  0  0  0  0  0  0  0  0
    3.4263   -0.3601    0.0000 C   0  0  2  0  0  0  0  0  0  0  0  0
    4.3898   -0.0925    0.0000 H   0  0  0  0  0  0  0  0  0  0  0  0
    4.0140   -1.1691    0.0000 C   0  0  0  0  0  0  0  0  0  0  0  0
    3.4263   -1.9781    0.0000 C   0  0  0  0  0  0  0  0  0  0  0  0
    2.4752   -1.6691    0.0000 C   0  0  0  0  0  0  0  0  0  0  0  0
    1.6092   -2.1691    0.0000 C   0  0  0  0  0  0  0  0  0  0  0  0
    0.7431   -1.6691    0.0000 C   0  0  0  0  0  0  0  0  0  0  0  0
    0.7431   -0.6691    0.0000 C   0  0  0  0  0  0  0  0  0  0  0  0
    1.6092   -0.1691    0.0000 C   0  0  0  0  0  0  0  0  0  0  0  0
    2.4752   -0.6691    0.0000 C   0  0  0  0  0  0  0  0  0  0  0  0
    1.4013    0.8090    0.0000 C   0  0  0  0  0  0  0  0  0  0  0  0
    0.4067    0.9135    0.0000 C   0  0  0  0  0  0  0  0  0  0  0  0
    0.0000   -0.0000    0.0000 O   0  0  0  0  0  0  0  0  0  0  0  0
  1  2  1  0  0  0  0
  2  3  1  0  0  0  0
  3  4  2  0  0  0  0
  3  5  1  0  0  0  0
  5  6  1  0  0  0  0
  6  7  1  0  0  0  0
  7  8  1  0  0  0  0
  8  9  1  1  0  0  0
  8 17  1  0  0  0  0
  8 10  1  0  0  0  0
 10 11  1  0  0  0  0
 11 12  1  0  0  0  0
 12 17  1  0  0  0  0
 12 13  2  0  0  0  0
 13 14  1  0  0  0  0
 14 15  2  0  0  0  0
 15 20  1  0  0  0  0
 15 16  1  0  0  0  0
 16 17  2  0  0  0  0
 16 18  1  0  0  0  0
 18 19  1  0  0  0  0
 19 20  1  0  0  0  0
M  END
$$$$

 OpenBabel10082008492D

  9  8  0  0  0  0  0  0  0  0999 V2000
    5.1962   -1.0000    0.0000 N   0  0  0  0  0  0  0  0  0  0  0  0
    5.1962   -0.0000    0.0000 C   0  0  0  0  0  0  0  0  0  0  0  0
    4.3301    0.5000    0.0000 C   0  0  0  0  0  0  0  0  0  0  0  0
    3.4641   -0.0000    0.0000 C   0  0  0  0  0  0  0  0  0  0  0  0
    2.5981    0.5000    0.0000 C   0  0  0  0  0  0  0  0  0  0  0  0
    1.7321   -0.0000    0.0000 C   0  0  0  0  0  0  0  0  0  0  0  0
    0.8660    0.5000    0.0000 C   0  0  0  0  0  0  0  0  0  0  0  0
    0.8660    1.5000    0.0000 O   0  0  0  0  0  0  0  0  0  0  0  0
   -0.0000   -0.0000    0.0000 O   0  0  0  0  0  0  0  0  0  0  0  0
  1  2  1  0  0  0  0
  2  3  1  0  0  0  0
  3  4  1  0  0  0  0
  4  5  1  0  0  0  0
  5  6  1  0  0  0  0
  6  7  1  0  0  0  0
  7  8  2  0  0  0  0
  7  9  1  0  0  0  0
M  END
$$$$

 OpenBabel10082008492D

 21 23  0  0  0  0  0  0  0  0999 V2000
   -4.5747   -0.4266    0.0000 C   0  0  0  0  0  0  0  0  0  0  0  0
   -3.8416   -1.1068    0.0000 N   0  0  0  0  0  0  0  0  0  0  0  0
   -4.0642   -2.0817    0.0000 C   0  0  0  0  0  0  0  0  0  0  0  0
   -2.8861   -0.8120    0.0000 C   0  0  0  0  0  0  0  0  0  0  0  0
   -2.1530   -1.4922    0.0000 C   0  0  0  0  0  0  0  0  0  0  0  0
   -1.1974   -1.1974    0.0000 C   0  0  0  0  0  0  0  0  0  0  0  0
   -0.9749   -0.2225    0.0000 C   0  0  0  0  0  0  0  0  0  0  0  0
   -1.7568    0.4010    0.0000 C   0  0  0  0  0  0  0  0  0  0  0  0
   -2.6228   -0.0990    0.0000 C   0  0  0  0  0  0  0  0  0  0  0  0
   -3.4888    0.4010    0.0000 C   0  0  0  0  0  0  0  0  0  0  0  0
   -3.4888    1.4010    0.0000 C   0  0  0  0  0  0  0  0  0  0  0  0
   -2.6228    1.9010    0.0000 C   0  0  0  0  0  0  0  0  0  0  0  0
   -1.7568    1.4010    0.0000 C   0  0  0  0  0  0  0  0  0  0  0  0
   -0.9749    2.0245    0.0000 C   0  0  0  0  0  0  0  0  0  0  0  0
   -0.0000    1.8019    0.0000 C   0  0  0  0  0  0  0  0  0  0  0  0
    0.4339    0.9010    0.0000 C   0  0  0  0  0  0  0  0  0  0  0  0
    1.4311    0.9757    0.0000 C   0  0  0  0  0  0  0  0  0  0  0  0
    1.9944    0.1495    0.0000 C   0  0  0  0  0  0  0  0  0  0  0  0
    1.5605   -0.7515    0.0000 C   0  0  0  0  0  0  0  0  0  0  0  0
    0.5633   -0.8262    0.0000 C   0  0  0  0  0  0  0  0  0  0  0  0
    0.0000    0.0000    0.0000 C   0  0  0  0  0  0  0  0  0  0  0  0
  1  2  1  0  0  0  0
  2  3  1  0  0  0  0
  2  4  1  0  0  0  0
  4  5  1  0  0  0  0
  5  6  1  0  0  0  0
  6  7  2  3  0  0  0
  7 21  1  0  0  0  0
  7  8  1  0  0  0  0
  8 13  1  0  0  0  0
  8  9  2  0  0  0  0
  9 10  1  0  0  0  0
 10 11  2  0  0  0  0
 11 12  1  0  0  0  0
 12 13  2  0  0  0  0
 13 14  1  0  0  0  0
 14 15  2  0  0  0  0
 15 16  1  0  0  0  0
 16 21  1  0  0  0  0
 16 17  2  0  0  0  0
 17 18  1  0  0  0  0
 18 19  2  0  0  0  0
 19 20  1  0  0  0  0
 20 21  2  0  0  0  0
M  END
$$$$

 OpenBabel10082008492D

 25 27  0  0  0  0  0  0  0  0999 V2000
    1.0000    1.7321    0.0000 C   0  0  0  0  0  0  0  0  0  0  0  0
    1.5000    0.8660    0.0000 O   0  0  0  0  0  0  0  0  0  0  0  0
    1.0000    0.0000    0.0000 C   0  0  0  0  0  0  0  0  0  0  0  0
    1.5000   -0.8660    0.0000 C   0  0  0  0  0  0  0  0  0  0  0  0
    1.0000   -1.7321    0.0000 C   0  0  0  0  0  0  0  0  0  0  0  0
    0.0000   -1.7321    0.0000 C   0  0  0  0  0  0  0  0  0  0  0  0
   -0.6691   -2.4752    0.0000 N   0  0  0  0  0  0  0  0  0  0  0  0
   -0.4612   -3.4533    0.0000 H   0  0  0  0  0  0  0  0  0  0  0  0
   -1.5827   -2.0685    0.0000 C   0  0  0  0  0  0  0  0  0  0  0  0
   -2.4487   -2.5685    0.0000 S   0  3  3  0  0  0  0  0  0  0  0  0
   -2.4487   -3.5685    0.0000 O   0  5  0  0  0  0  0  0  0  0  0  0
   -3.3147   -2.0685    0.0000 C   0  0  0  0  0  0  0  0  0  0  0  0
   -3.3147   -1.0685    0.0000 C   0  0  0  0  0  0  0  0  0  0  0  0
   -2.4487   -0.5685    0.0000 N   0  0  0  0  0  0  0  0  0  0  0  0
   -2.4487    0.4315    0.0000 C   0  0  0  0  0  0  0  0  0  0  0  0
   -3.3147    0.9315    0.0000 C   0  0  0  0  0  0  0  0  0  0  0  0
   -3.3147    1.9315    0.0000 C   0  0  0  0  0  0  0  0  0  0  0  0
   -4.1808    0.4315    0.0000 C   0  0  0  0  0  0  0  0  0  0  0  0
   -5.0468    0.9315    0.0000 O   0  0  0  0  0  0  0  0  0  0  0  0
   -5.9128    0.4315    0.0000 C   0  0  0  0  0  0  0  0  0  0  0  0
   -4.1808   -0.5685    0.0000 C   0  0  0  0  0  0  0  0  0  0  0  0
   -5.0468   -1.0685    0.0000 C   0  0  0  0  0  0  0  0  0  0  0  0
   -1.4781   -1.0739    0.0000 N   0  0  0  0  0  0  0  0  0  0  0  0
   -0.5000   -0.8660    0.0000 C   0  0  0  0  0  0  0  0  0  0  0  0
   -0.0000   -0.0000    0.0000 C   0  0  0  0  0  0  0  0  0  0  0  0
  1  2  1  0  0  0  0
  2  3  1  0  0  0  0
  3 25  1  0  0  0  0
  3  4  2  0  0  0  0
  4  5  1  0  0  0  0
  5  6  2  0  0  0  0
  6 24  1  0  0  0  0
  6  7  1  0  0  0  0
  7  8  1  0  0  0  0
  7  9  1  0  0  0  0
  9 10  1  0  0  0  0
  9 23  2  0  0  0  0
 10 11  1  0  0  0  0
 10 12  1  0  0  0  0
 12 13  1  0  0  0  0
 13 21  1  0  0  0  0
 13 14  2  0  0  0  0
 14 15  1  0  0  0  0
 15 16  2  0  0  0  0
 16 17  1  0  0  0  0
 16 18  1  0  0  0  0
 18 19  1  0  0  0  0
 18 21  2  0  0  0  0
 19 20  1  0  0  0  0
 21 22  1  0  0  0  0
 23 24  1  0  0  0  0
 24 25  2  0  0  0  0
M  CHG  2  10   1  11  -1
M  END
$$$$

 OpenBabel10082008492D

 31 34  0  0  0  0  0  0  0  0999 V2000
   -3.4641   -4.0000    0.0000 C   0  0  0  0  0  0  0  0  0  0  0  0
   -3.4641   -3.0000    0.0000 O   0  0  0  0  0  0  0  0  0  0  0  0
   -4.3301   -2.5000    0.0000 C   0  0  0  0  0  0  0  0  0  0  0  0
   -5.1962   -3.0000    0.0000 C   0  0  0  0  0  0  0  0  0  0  0  0
   -6.0622   -2.5000    0.0000 C   0  0  0  0  0  0  0  0  0  0  0  0
   -6.9282   -3.0000    0.0000 N   0  0  0  0  0  0  0  0  0  0  0  0
   -7.7942   -2.5000    0.0000 C   0  0  0  0  0  0  0  0  0  0  0  0
   -7.7942   -1.5000    0.0000 N   0  0  0  0  0  0  0  0  0  0  0  0
   -6.9282   -1.0000    0.0000 C   0  0  0  0  0  0  0  0  0  0  0  0
   -6.9282   -0.0000    0.0000 N   0  0  0  0  0  0  0  0  0  0  0  0
   -7.7942    0.5000    0.0000 C   0  0  0  0  0  0  0  0  0  0  0  0
   -8.6603   -0.0000    0.0000 C   0  0  0  0  0  0  0  0  0  0  0  0
   -9.5263    0.5000    0.0000 C   0  0  0  0  0  0  0  0  0  0  0  0
   -9.5263    1.5000    0.0000 C   0  0  0  0  0  0  0  0  0  0  0  0
  -10.3923    2.0000    0.0000 F   0  0  0  0  0  0  0  0  0  0  0  0
   -8.6603    2.0000    0.0000 C   0  0  0  0  0  0  0  0  0  0  0  0
   -8.6603    3.0000    0.0000 Cl  0  0  0  0  0  0  0  0  0  0  0  0
   -7.7942    1.5000    0.0000 C   0  0  0  0  0  0  0  0  0  0  0  0
   -6.0622   -1.5000    0.0000 C   0  0  0  0  0  0  0  0  0  0  0  0
   -5.1962   -1.0000    0.0000 C   0  0  0  0  0  0  0  0  0  0  0  0
   -4.3301   -1.5000    0.0000 C   0  0  0  0  0  0  0  0  0  0  0  0
   -3.4641   -1.0000    0.0000 O   0  0  0  0  0  0  0  0  0  0  0  0
   -2.5981   -1.5000    0.0000 C   0  0  0  0  0  0  0  0  0  0  0  0
   -1.7321   -1.0000    0.0000 C   0  0  0  0  0  0  0  0  0  0  0  0
   -1.7321   -0.0000    0.0000 C   0  0  0  0  0  0  0  0  0  0  0  0
   -0.8660    0.5000    0.0000 N   0  0  0  0  0  0  0  0  0  0  0  0
   -0.8660    1.5000    0.0000 C   0  0  0  0  0  0  0  0  0  0  0  0
   -0.0000    2.0000    0.0000 C   0  0  0  0  0  0  0  0  0  0  0  0
    0.8660    1.5000    0.0000 O   0  0  0  0  0  0  0  0  0  0  0  0
    0.8660    0.5000    0.0000 C   0  0  0  0  0  0  0  0  0  0  0  0
   -0.0000   -0.0000    0.0000 C   0  0  0  0  0  0  0  0  0  0  0  0
  1  2  1  0  0  0  0
  2  3  1  0  0  0  0
  3 21  1  0  0  0  0
  3  4  2  0  0  0  0
  4  5  1  0  0  0  0
  5 19  1  0  0  0  0
  5  6  2  0  0  0  0
  6  7  1  0  0  0  0
  7  8  2  0  0  0  0
  8  9  1  0  0  0  0
  9 10  1  0  0  0  0
  9 19  2  0  0  0  0
 10 11  1  0  0  0  0
 11 18  1  0  0  0  0
 11 12  2  0  0  0  0
 12 13  1  0  0  0  0
 13 14  2  0  0  0  0
 14 15  1  0  0  0  0
 14 16  1  0  0  0  0
 16 17  1  0  0  0  0
 16 18  2  0  0  0  0
 19 20  1  0  0  0  0
 20 21  2  0  0  0  0
 21 22  1  0  0  0  0
 22 23  1  0  0  0  0
 23 24  1  0  0  0  0
 24 25  1  0  0  0  0
 25 26  1  0  0  0  0
 26 31  1  0  0  0  0
 26 27  1  0  0  0  0
 27 28  1  0  0  0  0
 28 29  1  0  0  0  0
 29 30  1  0  0  0  0
 30 31  1  0  0  0  0
M  END
$$$$

 OpenBabel10082008492D

 21 22  0  0  0  0  0  0  0  0999 V2000
    3.5981    4.5000    0.0000 C   0  0  0  0  0  0  0  0  0  0  0  0
    2.7321    4.0000    0.0000 O   0  0  0  0  0  0  0  0  0  0  0  0
    2.7321    3.0000    0.0000 C   0  0  0  0  0  0  0  0  0  0  0  0
    3.5981    2.5000    0.0000 N   0  0  0  0  0  0  0  0  0  0  0  0
    3.5981    1.5000    0.0000 C   0  0  0  0  0  0  0  0  0  0  0  0
    2.7321    1.0000    0.0000 N   0  0  0  0  0  0  0  0  0  0  0  0
    1.8660    1.5000    0.0000 C   0  0  0  0  0  0  0  0  0  0  0  0
    1.0000    1.0000    0.0000 N   0  0  0  0  0  0  0  0  0  0  0  0
    1.0000   -0.0000    0.0000 S   0  0  0  0  0  0  0  0  0  0  0  0
    2.0000   -0.0000    0.0000 O   0  0  0  0  0  0  0  0  0  0  0  0
    1.0000   -1.0000    0.0000 O   0  0  0  0  0  0  0  0  0  0  0  0
    0.0000   -0.0000    0.0000 C   0  0  0  0  0  0  0  0  0  0  0  0
   -0.5000    0.8660    0.0000 C   0  0  0  0  0  0  0  0  0  0  0  0
   -1.5000    0.8660    0.0000 C   0  0  0  0  0  0  0  0  0  0  0  0
   -2.0000    0.0000    0.0000 C   0  0  0  0  0  0  0  0  0  0  0  0
   -3.0000   -0.0000    0.0000 N   0  0  0  0  0  0  0  0  0  0  0  0
   -1.5000   -0.8660    0.0000 C   0  0  0  0  0  0  0  0  0  0  0  0
   -0.5000   -0.8660    0.0000 C   0  0  0  0  0  0  0  0  0  0  0  0
    1.8660    2.5000    0.0000 C   0  0  0  0  0  0  0  0  0  0  0  0
    1.0000    3.0000    0.0000 O   0  0  0  0  0  0  0  0  0  0  0  0
    0.1340    2.5000    0.0000 C   0  0  0  0  0  0  0  0  0  0  0  0
  1  2  1  0  0  0  0
  2  3  1  0  0  0  0
  3 19  1  0  0  0  0
  3  4  2  0  0  0  0
  4  5  1  0  0  0  0
  5  6  2  0  0  0  0
  6  7  1  0  0  0  0
  7  8  1  0  0  0  0
  7 19  2  0  0  0  0
  8  9  1  0  0  0  0
  9 10  2  0  0  0  0
  9 11  2  0  0  0  0
  9 12  1  0  0  0  0
 12 18  1  0  0  0  0
 12 13  2  0  0  0  0
 13 14  1  0  0  0  0
 14 15  2  0  0  0  0
 15 16  1  0  0  0  0
 15 17  1  0  0  0  0
 17 18  2  0  0  0  0
 19 20  1  0  0  0  0
 20 21  1  0  0  0  0
M  END
$$$$

 OpenBabel10082008492D

 19 20  0  0  0  0  0  0  0  0999 V2000
    1.7321    4.0000    0.0000 C   0  0  0  0  0  0  0  0  0  0  0  0
    0.8660    4.5000    0.0000 N   0  0  0  0  0  0  0  0  0  0  0  0
    0.8660    5.5000    0.0000 C   0  0  0  0  0  0  0  0  0  0  0  0
    0.0000    4.0000    0.0000 C   0  0  0  0  0  0  0  0  0  0  0  0
    0.0000    3.0000    0.0000 C   0  0  0  0  0  0  0  0  0  0  0  0
   -0.8660    2.5000    0.0000 O   0  0  0  0  0  0  0  0  0  0  0  0
   -0.8660    1.5000    0.0000 C   0  0  0  0  0  0  0  0  0  0  0  0
   -1.7321    1.0000    0.0000 C   0  0  0  0  0  0  0  0  0  0  0  0
   -1.7321    0.0000    0.0000 C   0  0  0  0  0  0  0  0  0  0  0  0
   -2.5981   -0.5000    0.0000 C   0  0  0  0  0  0  0  0  0  0  0  0
   -3.4641    0.0000    0.0000 C   0  0  0  0  0  0  0  0  0  0  0  0
   -3.4641    1.0000    0.0000 C   0  0  0  0  0  0  0  0  0  0  0  0
   -2.5981    1.5000    0.0000 C   0  0  0  0  0  0  0  0  0  0  0  0
    0.0000    1.0000    0.0000 C   0  0  0  0  0  0  0  0  0  0  0  0
    0.8660    1.5000    0.0000 C   0  0  0  0  0  0  0  0  0  0  0  0
    1.7321    1.0000    0.0000 C   0  0  0  0  0  0  0  0  0  0  0  0
    1.7321   -0.0000    0.0000 C   0  0  0  0  0  0  0  0  0  0  0  0
    0.8660   -0.5000    0.0000 C   0  0  0  0  0  0  0  0  0  0  0  0
   -0.0000   -0.0000    0.0000 C   0  0  0  0  0  0  0  0  0  0  0  0
  1  2  1  0  0  0  0
  2  3  1  0  0  0  0
  2  4  1  0  0  0  0
  4  5  1  0  0  0  0
  5  6  1  0  0  0  0
  6  7  1  0  0  0  0
  7  8  1  0  0  0  0
  7 14  1  0  0  0  0
  8 13  1  0  0  0  0
  8  9  2  0  0  0  0
  9 10  1  0  0  0  0
 10 11  2  0  0  0  0
 11 12  1  0  0  0  0
 12 13  2  0  0  0  0
 14 19  1  0  0  0  0
 14 15  2  0  0  0  0
 15 16  1  0  0  0  0
 16 17  2  0  0  0  0
 17 18  1  0  0  0  0
 18 19  2  0  0  0  0
M  END
$$$$

 OpenBabel10082008492D

 31 33  0  0  0  0  0  0  0  0999 V2000
    2.5981   -2.5000    0.0000 C   0  0  0  0  0  0  0  0  0  0  0  0
    2.5981   -1.5000    0.0000 C   0  0  0  0  0  0  0  0  0  0  0  0
    3.4641   -1.0000    0.0000 C   0  0  0  0  0  0  0  0  0  0  0  0
    1.7321   -1.0000    0.0000 C   0  0  0  0  0  0  0  0  0  0  0  0
    0.8660   -1.5000    0.0000 O   0  0  0  0  0  0  0  0  0  0  0  0
    0.0000   -1.0000    0.0000 C   0  0  0  0  0  0  0  0  0  0  0  0
   -0.8660   -1.5000    0.0000 C   0  0  0  0  0  0  0  0  0  0  0  0
   -1.7321   -1.0000    0.0000 C   0  0  0  0  0  0  0  0  0  0  0  0
   -1.7321   -0.0000    0.0000 C   0  0  0  0  0  0  0  0  0  0  0  0
   -2.5981    0.5000    0.0000 C   0  0  0  0  0  0  0  0  0  0  0  0
   -3.4641   -0.0000    0.0000 N   0  0  0  0  0  0  0  0  0  0  0  0
   -4.3301    0.5000    0.0000 C   0  0  0  0  0  0  0  0  0  0  0  0
   -4.3301    1.5000    0.0000 O   0  0  0  0  0  0  0  0  0  0  0  0
   -5.1962   -0.0000    0.0000 N   0  0  0  0  0  0  0  0  0  0  0  0
   -6.0622    0.5000    0.0000 C   0  0  0  0  0  0  0  0  0  0  0  0
   -6.9282    0.0000    0.0000 C   0  0  0  0  0  0  0  0  0  0  0  0
   -6.9282   -1.0000    0.0000 C   0  0  0  0  0  0  0  0  0  0  0  0
   -7.7942   -1.5000    0.0000 C   0  0  0  0  0  0  0  0  0  0  0  0
   -8.6603   -1.0000    0.0000 C   0  0  0  0  0  0  0  0  0  0  0  0
   -9.5263   -1.5000    0.0000 F   0  0  0  0  0  0  0  0  0  0  0  0
   -8.6603    0.0000    0.0000 C   0  0  0  0  0  0  0  0  0  0  0  0
   -7.7942    0.5000    0.0000 C   0  0  0  0  0  0  0  0  0  0  0  0
   -5.1962   -1.0000    0.0000 C   0  0  0  0  0  0  0  0  0  0  0  0
   -4.3301   -1.5000    0.0000 C   0  0  0  0  0  0  0  0  0  0  0  0
   -4.3301   -2.5000    0.0000 C   0  0  0  0  0  0  0  0  0  0  0  0
   -5.1962   -3.0000    0.0000 N   0  0  0  0  0  0  0  0  0  0  0  0
   -5.1962   -4.0000    0.0000 C   0  0  0  0  0  0  0  0  0  0  0  0
   -6.0622   -2.5000    0.0000 C   0  0  0  0  0  0  0  0  0  0  0  0
   -6.0622   -1.5000    0.0000 C   0  0  0  0  0  0  0  0  0  0  0  0
   -0.8660    0.5000    0.0000 C   0  0  0  0  0  0  0  0  0  0  0  0
    0.0000    0.0000    0.0000 C   0  0  0  0  0  0  0  0  0  0  0  0
  1  2  1  0  0  0  0
  2  3  1  0  0  0  0
  2  4  1  0  0  0  0
  4  5  1  0  0  0  0
  5  6  1  0  0  0  0
  6 31  1  0  0  0  0
  6  7  2  0  0  0  0
  7  8  1  0  0  0  0
  8  9  2  0  0  0  0
  9 10  1  0  0  0  0
  9 30  1  0  0  0  0
 10 11  1  0  0  0  0
 11 12  1  0  0  0  0
 12 13  2  0  0  0  0
 12 14  1  0  0  0  0
 14 15  1  0  0  0  0
 14 23  1  0  0  0  0
 15 16  1  0  0  0  0
 16 22  1  0  0  0  0
 16 17  2  0  0  0  0
 17 18  1  0  0  0  0
 18 19  2  0  0  0  0
 19 20  1  0  0  0  0
 19 21  1  0  0  0  0
 21 22  2  0  0  0  0
 23 29  1  0  0  0  0
 23 24  1  0  0  0  0
 24 25  1  0  0  0  0
 25 26  1  0  0  0  0
 26 27  1  0  0  0  0
 26 28  1  0  0  0  0
 28 29  1  0  0  0  0
 30 31  2  0  0  0  0
M  END
$$$$

 OpenBabel10082008492D

 26 28  0  0  1  0  0  0  0  0999 V2000
   -3.4341   -2.7513    0.0000 C   0  0  0  0  0  0  0  0  0  0  0  0
   -2.9513   -1.9152    0.0000 C   0  0  2  0  0  0  0  0  0  0  0  0
   -1.9858   -3.5875    0.0000 H   0  0  0  0  0  0  0  0  0  0  0  0
   -3.7875   -1.4324    0.0000 C   0  0  0  0  0  0  0  0  0  0  0  0
   -3.7875   -0.4669    0.0000 C   0  0  0  0  0  0  0  0  0  0  0  0
   -2.9513    0.0159    0.0000 N   0  0  0  0  0  0  0  0  0  0  0  0
   -2.9513    0.9814    0.0000 C   0  0  0  0  0  0  0  0  0  0  0  0
   -2.1151    1.4641    0.0000 O   0  0  0  0  0  0  0  0  0  0  0  0
   -3.7875    1.4641    0.0000 C   0  0  0  0  0  0  0  0  0  0  0  0
   -3.7875    2.4297    0.0000 C   0  0  0  0  0  0  0  0  0  0  0  0
   -3.7875    3.3952    0.0000 N   0  0  0  0  0  0  0  0  0  0  0  0
   -2.1151   -0.4669    0.0000 C   0  0  0  0  0  0  0  0  0  0  0  0
   -2.1151   -1.4324    0.0000 C   0  0  2  0  0  0  0  0  0  0  0  0
   -2.2412   -2.3897    0.0000 H   0  0  0  0  0  0  0  0  0  0  0  0
   -1.1825   -1.1825    0.0000 N   0  0  0  0  0  0  0  0  0  0  0  0
   -0.4998   -1.8652    0.0000 C   0  0  0  0  0  0  0  0  0  0  0  0
   -0.9326   -0.2499    0.0000 C   0  0  0  0  0  0  0  0  0  0  0  0
   -1.6153    0.4328    0.0000 N   0  0  0  0  0  0  0  0  0  0  0  0
   -1.3654    1.3654    0.0000 C   0  0  0  0  0  0  0  0  0  0  0  0
   -0.4328    1.6153    0.0000 N   0  0  0  0  0  0  0  0  0  0  0  0
    0.2499    0.9326    0.0000 C   0  0  0  0  0  0  0  0  0  0  0  0
    1.2141    0.9831    0.0000 N   0  0  0  0  0  0  0  0  0  0  0  0
    1.7399    1.7929    0.0000 H   0  0  0  0  0  0  0  0  0  0  0  0
    1.5601    0.0818    0.0000 C   0  0  0  0  0  0  0  0  0  0  0  0
    0.8098   -0.5259    0.0000 C   0  0  0  0  0  0  0  0  0  0  0  0
    0.0000   -0.0000    0.0000 C   0  0  0  0  0  0  0  0  0  0  0  0
  1  2  1  0  0  0  0
  2  3  1  1  0  0  0
  2 13  1  0  0  0  0
  2  4  1  0  0  0  0
  4  5  1  0  0  0  0
  5  6  1  0  0  0  0
  6  7  1  0  0  0  0
  6 12  1  0  0  0  0
  7  8  2  0  0  0  0
  7  9  1  0  0  0  0
  9 10  1  0  0  0  0
 10 11  3  0  0  0  0
 12 13  1  0  0  0  0
 13 14  1  1  0  0  0
 13 15  1  0  0  0  0
 15 16  1  0  0  0  0
 15 17  1  0  0  0  0
 17 26  1  0  0  0  0
 17 18  2  0  0  0  0
 18 19  1  0  0  0  0
 19 20  2  0  0  0  0
 20 21  1  0  0  0  0
 21 26  2  0  0  0  0
 21 22  1  0  0  0  0
 22 23  1  0  0  0  0
 22 24  1  0  0  0  0
 24 25  2  0  0  0  0
 25 26  1  0  0  0  0
M  END
$$$$

 OpenBabel10082008492D

 30 32  0  0  0  0  0  0  0  0999 V2000
   -1.1999    6.1537    0.0000 C   0  0  0  0  0  0  0  0  0  0  0  0
   -2.1135    5.7469    0.0000 C   0  0  0  0  0  0  0  0  0  0  0  0
   -2.2180    4.7524    0.0000 N   0  0  0  0  0  0  0  0  0  0  0  0
   -3.1315    4.3457    0.0000 C   0  0  0  0  0  0  0  0  0  0  0  0
   -3.2361    3.3511    0.0000 C   0  0  0  0  0  0  0  0  0  0  0  0
   -1.4090    4.1646    0.0000 C   0  0  0  0  0  0  0  0  0  0  0  0
   -1.5135    3.1701    0.0000 C   0  0  0  0  0  0  0  0  0  0  0  0
   -0.7045    2.5823    0.0000 N   0  0  0  0  0  0  0  0  0  0  0  0
   -0.8090    1.5878    0.0000 C   0  0  0  0  0  0  0  0  0  0  0  0
   -1.7226    1.1810    0.0000 O   0  0  0  0  0  0  0  0  0  0  0  0
   -0.0000    1.0000    0.0000 C   0  0  0  0  0  0  0  0  0  0  0  0
    0.9511    1.3090    0.0000 C   0  0  0  0  0  0  0  0  0  0  0  0
    1.2601    2.2601    0.0000 C   0  0  0  0  0  0  0  0  0  0  0  0
    1.5388    0.5000    0.0000 N   0  0  0  0  0  0  0  0  0  0  0  0
    2.5388    0.5000    0.0000 H   0  0  0  0  0  0  0  0  0  0  0  0
    0.9511   -0.3090    0.0000 C   0  0  0  0  0  0  0  0  0  0  0  0
    1.2601   -1.2601    0.0000 C   0  0  0  0  0  0  0  0  0  0  0  0
    2.2382   -1.4680    0.0000 C   0  0  0  0  0  0  0  0  0  0  0  0
    2.9814   -0.7989    0.0000 C   0  0  0  0  0  0  0  0  0  0  0  0
    2.8768    0.1957    0.0000 O   0  0  0  0  0  0  0  0  0  0  0  0
    3.8474   -1.2989    0.0000 N   0  0  0  0  0  0  0  0  0  0  0  0
    3.6395   -2.2770    0.0000 C   0  0  0  0  0  0  0  0  0  0  0  0
    4.2273   -3.0860    0.0000 C   0  0  0  0  0  0  0  0  0  0  0  0
    3.8205   -3.9996    0.0000 C   0  0  0  0  0  0  0  0  0  0  0  0
    2.8260   -4.1041    0.0000 C   0  0  0  0  0  0  0  0  0  0  0  0
    2.4193   -5.0176    0.0000 F   0  0  0  0  0  0  0  0  0  0  0  0
    2.2382   -3.2951    0.0000 C   0  0  0  0  0  0  0  0  0  0  0  0
    2.6450   -2.3815    0.0000 C   0  0  0  0  0  0  0  0  0  0  0  0
    0.0000   -0.0000    0.0000 C   0  0  0  0  0  0  0  0  0  0  0  0
   -0.8090   -0.5878    0.0000 C   0  0  0  0  0  0  0  0  0  0  0  0
  1  2  1  0  0  0  0
  2  3  1  0  0  0  0
  3  4  1  0  0  0  0
  3  6  1  0  0  0  0
  4  5  1  0  0  0  0
  6  7  1  0  0  0  0
  7  8  1  0  0  0  0
  8  9  1  0  0  0  0
  9 10  2  0  0  0  0
  9 11  1  0  0  0  0
 11 29  1  0  0  0  0
 11 12  2  0  0  0  0
 12 13  1  0  0  0  0
 12 14  1  0  0  0  0
 14 15  1  0  0  0  0
 14 16  1  0  0  0  0
 16 17  1  0  0  0  0
 16 29  2  0  0  0  0
 17 18  2  0  0  0  0
 18 28  1  0  0  0  0
 18 19  1  0  0  0  0
 19 20  2  0  0  0  0
 19 21  1  0  0  0  0
 21 22  1  0  0  0  0
 22 28  1  0  0  0  0
 22 23  2  0  0  0  0
 23 24  1  0  0  0  0
 24 25  2  0  0  0  0
 25 26  1  0  0  0  0
 25 27  1  0  0  0  0
 27 28  2  0  0  0  0
 29 30  1  0  0  0  0
M  END
$$$$

 OpenBabel10082008492D

 33 35  0  0  1  0  0  0  0  0999 V2000
    0.5341    1.6072    0.0000 C   0  0  0  0  0  0  0  0  0  0  0  0
    1.5000    1.8660    0.0000 C   0  0  1  0  0  0  0  0  0  0  0  0
    1.6305    2.8575    0.0000 H   0  0  0  0  0  0  0  0  0  0  0  0
    2.3660    2.3660    0.0000 C   0  0  0  0  0  0  0  0  0  0  0  0
    3.2321    1.8660    0.0000 N   0  0  0  0  0  0  0  0  0  0  0  0
    4.0981    2.3660    0.0000 C   0  0  0  0  0  0  0  0  0  0  0  0
    4.9641    1.8660    0.0000 C   0  0  2  0  0  0  0  0  0  0  0  0
    4.4641    1.0000    0.0000 H   0  0  0  0  0  0  0  0  0  0  0  0
    5.8301    1.3660    0.0000 C   0  0  0  0  0  0  0  0  0  0  0  0
    5.8301    0.3660    0.0000 C   0  0  0  0  0  0  0  0  0  0  0  0
    4.9641   -0.1340    0.0000 C   0  0  0  0  0  0  0  0  0  0  0  0
    4.9641   -1.1340    0.0000 C   0  0  0  0  0  0  0  0  0  0  0  0
    5.8301   -1.6340    0.0000 C   0  0  0  0  0  0  0  0  0  0  0  0
    6.6962   -1.1340    0.0000 C   0  0  0  0  0  0  0  0  0  0  0  0
    6.6962   -0.1340    0.0000 C   0  0  0  0  0  0  0  0  0  0  0  0
    5.4641    2.7321    0.0000 C   0  0  0  0  0  0  0  0  0  0  0  0
    6.4641    2.7321    0.0000 O   0  0  0  0  0  0  0  0  0  0  0  0
    4.9641    3.5981    0.0000 N   0  0  0  0  0  0  0  0  0  0  0  0
    5.4641    4.4641    0.0000 C   0  0  0  0  0  0  0  0  0  0  0  0
    6.4641    4.4641    0.0000 C   0  0  0  0  0  0  0  0  0  0  0  0
    6.9641    3.5981    0.0000 O   0  0  0  0  0  0  0  0  0  0  0  0
    6.9641    5.3301    0.0000 O   0  0  0  0  0  0  0  0  0  0  0  0
    3.2321    0.8660    0.0000 C   0  0  0  0  0  0  0  0  0  0  0  0
    2.3660    0.3660    0.0000 C   0  0  0  0  0  0  0  0  0  0  0  0
    1.5000    0.8660    0.0000 C   0  0  2  0  0  0  0  0  0  0  0  0
    0.5000    0.8660    0.0000 C   0  0  0  0  0  0  0  0  0  0  0  0
    1.0000   -0.0000    0.0000 C   0  0  0  0  0  0  0  0  0  0  0  0
    1.5000   -0.8660    0.0000 C   0  0  0  0  0  0  0  0  0  0  0  0
    1.0000   -1.7321    0.0000 C   0  0  0  0  0  0  0  0  0  0  0  0
   -0.0000   -1.7321    0.0000 C   0  0  0  0  0  0  0  0  0  0  0  0
   -0.5000   -0.8660    0.0000 C   0  0  0  0  0  0  0  0  0  0  0  0
   -1.5000   -0.8660    0.0000 O   0  0  0  0  0  0  0  0  0  0  0  0
    0.0000    0.0000    0.0000 C   0  0  0  0  0  0  0  0  0  0  0  0
  1  2  1  0  0  0  0
  2  3  1  6  0  0  0
  2 25  1  0  0  0  0
  2  4  1  0  0  0  0
  4  5  1  0  0  0  0
  5  6  1  0  0  0  0
  5 23  1  0  0  0  0
  6  7  1  0  0  0  0
  7  8  1  6  0  0  0
  7  9  1  0  0  0  0
  7 16  1  0  0  0  0
  9 10  1  0  0  0  0
 10 15  1  0  0  0  0
 10 11  2  0  0  0  0
 11 12  1  0  0  0  0
 12 13  2  0  0  0  0
 13 14  1  0  0  0  0
 14 15  2  0  0  0  0
 16 17  2  0  0  0  0
 16 18  1  0  0  0  0
 18 19  1  0  0  0  0
 19 20  1  0  0  0  0
 20 21  2  0  0  0  0
 20 22  1  0  0  0  0
 23 24  1  0  0  0  0
 24 25  1  0  0  0  0
 25 26  1  6  0  0  0
 25 27  1  0  0  0  0
 27 33  1  0  0  0  0
 27 28  2  0  0  0  0
 28 29  1  0  0  0  0
 29 30  2  0  0  0  0
 30 31  1  0  0  0  0
 31 32  1  0  0  0  0
 31 33  2  0  0  0  0
M  END
$$$$

 OpenBabel10082008492D

 26 29  0  0  1  0  0  0  0  0999 V2000
   -1.2321    4.8660    0.0000 C   0  0  0  0  0  0  0  0  0  0  0  0
   -1.2321    3.8660    0.0000 C   0  0  0  0  0  0  0  0  0  0  0  0
   -2.0981    3.3660    0.0000 C   0  0  0  0  0  0  0  0  0  0  0  0
   -2.9641    3.8660    0.0000 F   0  0  0  0  0  0  0  0  0  0  0  0
   -2.0981    2.3660    0.0000 C   0  0  0  0  0  0  0  0  0  0  0  0
   -2.9641    1.8660    0.0000 N   0  0  0  0  0  0  0  0  0  0  0  0
   -2.9641    0.8660    0.0000 C   0  0  0  0  0  0  0  0  0  0  0  0
   -3.8301    0.3660    0.0000 C   0  0  0  0  0  0  0  0  0  0  0  0
   -4.6962    0.8660    0.0000 N   0  0  0  0  0  0  0  0  0  0  0  0
   -4.6962    1.8660    0.0000 C   0  0  3  0  0  0  0  0  0  0  0  0
   -5.5622    2.3660    0.0000 C   0  0  0  0  0  0  0  0  0  0  0  0
   -3.8301    2.3660    0.0000 C   0  0  0  0  0  0  0  0  0  0  0  0
   -1.2321    1.8660    0.0000 C   0  0  0  0  0  0  0  0  0  0  0  0
   -0.3660    2.3660    0.0000 C   0  0  0  0  0  0  0  0  0  0  0  0
   -0.3660    3.3660    0.0000 C   0  0  0  0  0  0  0  0  0  0  0  0
    0.5000    3.8660    0.0000 C   0  0  0  0  0  0  0  0  0  0  0  0
    0.5000    4.8660    0.0000 O   0  0  0  0  0  0  0  0  0  0  0  0
    1.3660    3.3660    0.0000 C   0  0  0  0  0  0  0  0  0  0  0  0
    2.2321    3.8660    0.0000 C   0  0  0  0  0  0  0  0  0  0  0  0
    3.0981    3.3660    0.0000 O   0  0  0  0  0  0  0  0  0  0  0  0
    2.2321    4.8660    0.0000 O   0  0  0  0  0  0  0  0  0  0  0  0
    1.3660    2.3660    0.0000 C   0  0  0  0  0  0  0  0  0  0  0  0
    0.5000    1.8660    0.0000 N   0  0  0  0  0  0  0  0  0  0  0  0
    0.5000    0.8660    0.0000 C   0  0  0  0  0  0  0  0  0  0  0  0
    1.0000    0.0000    0.0000 C   0  0  0  0  0  0  0  0  0  0  0  0
   -0.0000   -0.0000    0.0000 C   0  0  0  0  0  0  0  0  0  0  0  0
  1  2  1  0  0  0  0
  2 15  1  0  0  0  0
  2  3  2  0  0  0  0
  3  4  1  0  0  0  0
  3  5  1  0  0  0  0
  5  6  1  0  0  0  0
  5 13  2  0  0  0  0
  6 12  1  0  0  0  0
  6  7  1  0  0  0  0
  7  8  1  0  0  0  0
  8  9  1  0  0  0  0
  9 10  1  0  0  0  0
 10 11  1  0  0  0  0
 10 12  1  0  0  0  0
 13 14  1  0  0  0  0
 14 23  1  0  0  0  0
 14 15  2  0  0  0  0
 15 16  1  0  0  0  0
 16 17  2  0  0  0  0
 16 18  1  0  0  0  0
 18 19  1  0  0  0  0
 18 22  2  0  0  0  0
 19 20  2  0  0  0  0
 19 21  1  0  0  0  0
 22 23  1  0  0  0  0
 23 24  1  0  0  0  0
 24 26  1  0  0  0  0
 24 25  1  0  0  0  0
 25 26  1  0  0  0  0
M  END
$$$$

 OpenBabel10082008492D

 37 40  0  0  1  0  0  0  0  0999 V2000
    2.4836   -2.1907    0.0000 C   0  0  0  0  0  0  0  0  0  0  0  0
    2.2247   -1.2247    0.0000 C   0  0  0  0  0  0  0  0  0  0  0  0
    2.9319   -0.5176    0.0000 C   0  0  0  0  0  0  0  0  0  0  0  0
    3.8978   -0.7765    0.0000 C   0  0  0  0  0  0  0  0  0  0  0  0
    4.6049   -0.0694    0.0000 C   0  0  0  0  0  0  0  0  0  0  0  0
    5.5708   -0.3282    0.0000 C   0  0  0  0  0  0  0  0  0  0  0  0
    6.2779    0.3789    0.0000 C   0  0  0  0  0  0  0  0  0  0  0  0
    5.8296   -1.2941    0.0000 N   0  0  0  0  0  0  0  0  0  0  0  0
    6.7956   -1.5529    0.0000 O   0  0  0  0  0  0  0  0  0  0  0  0
    7.5027   -0.8458    0.0000 C   0  0  0  0  0  0  0  0  0  0  0  0
    8.4686   -1.1046    0.0000 C   0  0  0  0  0  0  0  0  0  0  0  0
    8.7274   -2.0706    0.0000 C   0  0  0  0  0  0  0  0  0  0  0  0
    9.6933   -2.3294    0.0000 C   0  0  0  0  0  0  0  0  0  0  0  0
   10.4004   -1.6223    0.0000 C   0  0  0  0  0  0  0  0  0  0  0  0
   11.3664   -1.8811    0.0000 C   0  0  0  0  0  0  0  0  0  0  0  0
   11.6252   -2.8470    0.0000 C   0  0  0  0  0  0  0  0  0  0  0  0
   12.5911   -3.1058    0.0000 C   0  0  0  0  0  0  0  0  0  0  0  0
   13.2982   -2.3987    0.0000 C   0  0  0  0  0  0  0  0  0  0  0  0
   13.0394   -1.4328    0.0000 C   0  0  0  0  0  0  0  0  0  0  0  0
   12.0735   -1.1740    0.0000 C   0  0  0  0  0  0  0  0  0  0  0  0
   10.1416   -0.6563    0.0000 C   0  0  0  0  0  0  0  0  0  0  0  0
   10.8487    0.0508    0.0000 C   0  0  0  0  0  0  0  0  0  0  0  0
   11.8147    0.3096    0.0000 F   0  0  0  0  0  0  0  0  0  0  0  0
   11.5558   -0.6563    0.0000 F   0  0  0  0  0  0  0  0  0  0  0  0
   10.5899    1.0167    0.0000 F   0  0  0  0  0  0  0  0  0  0  0  0
    9.1757   -0.3975    0.0000 C   0  0  0  0  0  0  0  0  0  0  0  0
    4.3461    0.8966    0.0000 C   0  0  0  0  0  0  0  0  0  0  0  0
    3.3801    1.1554    0.0000 C   0  0  0  0  0  0  0  0  0  0  0  0
    2.6730    0.4483    0.0000 C   0  0  0  0  0  0  0  0  0  0  0  0
    1.7071    0.7071    0.0000 C   0  0  0  0  0  0  0  0  0  0  0  0
    1.0000   -0.0000    0.0000 N   0  0  0  0  0  0  0  0  0  0  0  0
   -0.0000   -0.0000    0.0000 C   0  0  0  0  0  0  0  0  0  0  0  0
    0.0000   -1.0000    0.0000 C   0  0  3  0  0  0  0  0  0  0  0  0
   -0.7071   -1.7071    0.0000 C   0  0  0  0  0  0  0  0  0  0  0  0
   -0.4483   -2.6730    0.0000 O   0  0  0  0  0  0  0  0  0  0  0  0
   -1.6730   -1.4483    0.0000 O   0  0  0  0  0  0  0  0  0  0  0  0
    1.0000   -1.0000    0.0000 C   0  0  0  0  0  0  0  0  0  0  0  0
  1  2  1  0  0  0  0
  2  3  1  0  0  0  0
  3 29  1  0  0  0  0
  3  4  2  0  0  0  0
  4  5  1  0  0  0  0
  5  6  1  0  0  0  0
  5 27  2  0  0  0  0
  6  7  1  0  0  0  0
  6  8  2  0  0  0  0
  8  9  1  0  0  0  0
  9 10  1  0  0  0  0
 10 11  1  0  0  0  0
 11 26  1  0  0  0  0
 11 12  2  0  0  0  0
 12 13  1  0  0  0  0
 13 14  2  0  0  0  0
 14 15  1  0  0  0  0
 14 21  1  0  0  0  0
 15 20  1  0  0  0  0
 15 16  1  0  0  0  0
 16 17  1  0  0  0  0
 17 18  1  0  0  0  0
 18 19  1  0  0  0  0
 19 20  1  0  0  0  0
 21 22  1  0  0  0  0
 21 26  2  0  0  0  0
 22 23  1  0  0  0  0
 22 24  1  0  0  0  0
 22 25  1  0  0  0  0
 27 28  1  0  0  0  0
 28 29  2  0  0  0  0
 29 30  1  0  0  0  0
 30 31  1  0  0  0  0
 31 37  1  0  0  0  0
 31 32  1  0  0  0  0
 32 33  1  0  0  0  0
 33 34  1  0  0  0  0
 33 37  1  0  0  0  0
 34 35  2  0  0  0  0
 34 36  1  0  0  0  0
M  END
$$$$

 OpenBabel10082008492D

 33 36  0  0  0  0  0  0  0  0999 V2000
   -0.8660   -1.5000    0.0000 C   0  0  0  0  0  0  0  0  0  0  0  0
   -0.8660   -0.5000    0.0000 C   0  0  0  0  0  0  0  0  0  0  0  0
   -1.7321    0.0000    0.0000 N   0  0  0  0  0  0  0  0  0  0  0  0
   -1.7321    1.0000    0.0000 C   0  0  0  0  0  0  0  0  0  0  0  0
   -2.5981    1.5000    0.0000 N   0  0  0  0  0  0  0  0  0  0  0  0
   -3.4641    1.0000    0.0000 C   0  0  0  0  0  0  0  0  0  0  0  0
   -3.5686    0.0055    0.0000 N   0  0  0  0  0  0  0  0  0  0  0  0
   -4.5468   -0.2024    0.0000 C   0  0  0  0  0  0  0  0  0  0  0  0
   -5.0468    0.6636    0.0000 C   0  0  0  0  0  0  0  0  0  0  0  0
   -6.0413    0.7681    0.0000 C   0  0  0  0  0  0  0  0  0  0  0  0
   -6.4480    1.6817    0.0000 O   0  0  0  0  0  0  0  0  0  0  0  0
   -6.6291   -0.0409    0.0000 N   0  0  0  0  0  0  0  0  0  0  0  0
   -7.6236    0.0636    0.0000 C   0  0  0  0  0  0  0  0  0  0  0  0
   -8.2114   -0.7454    0.0000 C   0  0  0  0  0  0  0  0  0  0  0  0
   -7.8047   -1.6589    0.0000 C   0  0  0  0  0  0  0  0  0  0  0  0
   -9.2059   -0.6409    0.0000 C   0  0  0  0  0  0  0  0  0  0  0  0
   -9.6127    0.2727    0.0000 C   0  0  0  0  0  0  0  0  0  0  0  0
   -9.0249    1.0817    0.0000 C   0  0  0  0  0  0  0  0  0  0  0  0
   -8.0303    0.9772    0.0000 C   0  0  0  0  0  0  0  0  0  0  0  0
   -7.4426    1.7862    0.0000 Cl  0  0  0  0  0  0  0  0  0  0  0  0
   -4.3776    1.4067    0.0000 S   0  0  0  0  0  0  0  0  0  0  0  0
   -0.8660    1.5000    0.0000 C   0  0  0  0  0  0  0  0  0  0  0  0
    0.0000    1.0000    0.0000 C   0  0  0  0  0  0  0  0  0  0  0  0
    0.8660    1.5000    0.0000 N   0  0  0  0  0  0  0  0  0  0  0  0
    0.8660    2.5000    0.0000 C   0  0  0  0  0  0  0  0  0  0  0  0
    1.7321    3.0000    0.0000 C   0  0  0  0  0  0  0  0  0  0  0  0
    2.5981    2.5000    0.0000 N   0  0  0  0  0  0  0  0  0  0  0  0
    3.4641    3.0000    0.0000 C   0  0  0  0  0  0  0  0  0  0  0  0
    3.4641    4.0000    0.0000 C   0  0  0  0  0  0  0  0  0  0  0  0
    4.3301    4.5000    0.0000 O   0  0  0  0  0  0  0  0  0  0  0  0
    2.5981    1.5000    0.0000 C   0  0  0  0  0  0  0  0  0  0  0  0
    1.7321    1.0000    0.0000 C   0  0  0  0  0  0  0  0  0  0  0  0
   -0.0000   -0.0000    0.0000 N   0  0  0  0  0  0  0  0  0  0  0  0
  1  2  1  0  0  0  0
  2 33  1  0  0  0  0
  2  3  2  0  0  0  0
  3  4  1  0  0  0  0
  4  5  1  0  0  0  0
  4 22  2  0  0  0  0
  5  6  1  0  0  0  0
  6 21  1  0  0  0  0
  6  7  2  0  0  0  0
  7  8  1  0  0  0  0
  8  9  2  0  0  0  0
  9 10  1  0  0  0  0
  9 21  1  0  0  0  0
 10 11  2  0  0  0  0
 10 12  1  0  0  0  0
 12 13  1  0  0  0  0
 13 19  1  0  0  0  0
 13 14  2  0  0  0  0
 14 15  1  0  0  0  0
 14 16  1  0  0  0  0
 16 17  2  0  0  0  0
 17 18  1  0  0  0  0
 18 19  2  0  0  0  0
 19 20  1  0  0  0  0
 22 23  1  0  0  0  0
 23 24  1  0  0  0  0
 23 33  2  0  0  0  0
 24 32  1  0  0  0  0
 24 25  1  0  0  0  0
 25 26  1  0  0  0  0
 26 27  1  0  0  0  0
 27 28  1  0  0  0  0
 27 31  1  0  0  0  0
 28 29  1  0  0  0  0
 29 30  1  0  0  0  0
 31 32  1  0  0  0  0
M  END
$$$$

 OpenBabel10082008492D

 17 17  0  0  1  0  0  0  0  0999 V2000
   -0.7321    1.0000    0.0000 N   0  0  0  0  0  0  0  0  0  0  0  0
   -1.7321    1.0000    0.0000 C   0  0  2  0  0  0  0  0  0  0  0  0
   -1.7321    2.0000    0.0000 H   0  0  0  0  0  0  0  0  0  0  0  0
   -2.7321    1.0000    0.0000 C   0  0  0  0  0  0  0  0  0  0  0  0
   -3.2321    1.8660    0.0000 O   0  0  0  0  0  0  0  0  0  0  0  0
   -3.2321    0.1340    0.0000 O   0  0  0  0  0  0  0  0  0  0  0  0
   -1.7321   -0.0000    0.0000 C   0  0  2  0  0  0  0  0  0  0  0  0
   -2.2321   -0.8660    0.0000 H   0  0  0  0  0  0  0  0  0  0  0  0
   -2.7321   -0.0000    0.0000 O   0  0  0  0  0  0  0  0  0  0  0  0
   -0.8660   -0.5000    0.0000 C   0  0  0  0  0  0  0  0  0  0  0  0
   -0.8660   -1.5000    0.0000 C   0  0  0  0  0  0  0  0  0  0  0  0
    0.0000   -2.0000    0.0000 C   0  0  0  0  0  0  0  0  0  0  0  0
    0.8660   -1.5000    0.0000 C   0  0  0  0  0  0  0  0  0  0  0  0
    1.7321   -2.0000    0.0000 O   0  0  0  0  0  0  0  0  0  0  0  0
    0.8660   -0.5000    0.0000 C   0  0  0  0  0  0  0  0  0  0  0  0
    1.7321    0.0000    0.0000 O   0  0  0  0  0  0  0  0  0  0  0  0
    0.0000   -0.0000    0.0000 C   0  0  0  0  0  0  0  0  0  0  0  0
  1  2  1  0  0  0  0
  2  3  1  6  0  0  0
  2  4  1  0  0  0  0
  2  7  1  0  0  0  0
  4  5  2  0  0  0  0
  4  6  1  0  0  0  0
  7  8  1  6  0  0  0
  7  9  1  0  0  0  0
  7 10  1  0  0  0  0
 10 17  1  0  0  0  0
 10 11  2  0  0  0  0
 11 12  1  0  0  0  0
 12 13  2  0  0  0  0
 13 14  1  0  0  0  0
 13 15  1  0  0  0  0
 15 16  1  0  0  0  0
 15 17  2  0  0  0  0
M  END
$$$$

 OpenBabel10082008492D

 11 10  0  0  0  0  0  0  0  0999 V2000
   -2.7273   -0.9091    0.0000 C   0  0  0  0  0  0  0  0  0  0  0  0
   -1.8182   -0.9091    0.0000 C   0  0  0  0  0  0  0  0  0  0  0  0
   -1.8182   -1.8182    0.0000 O   0  0  0  0  0  0  0  0  0  0  0  0
    0.0000   -0.9091    0.0000 P   0  0  0  0  0  0  0  0  0  0  0  0
    0.0000   -1.8182    0.0000 O   0  0  0  0  0  0  0  0  0  0  0  0
    0.9091   -0.9091    0.0000 O   0  0  0  0  0  0  0  0  0  0  0  0
    0.0000    0.0000    0.0000 O   0  0  0  0  0  0  0  0  0  0  0  0
   -1.8182   -0.0000    0.0000 P   0  0  0  0  0  0  0  0  0  0  0  0
   -0.9091   -0.0000    0.0000 O   0  0  0  0  0  0  0  0  0  0  0  0
   -1.8182    0.9091    0.0000 O   0  0  0  0  0  0  0  0  0  0  0  0
   -2.7273   -0.0000    0.0000 O   0  0  0  0  0  0  0  0  0  0  0  0
  1  2  1  0  0  0  0
  2  3  1  0  0  0  0
  2  4  1  0  0  0  0
  2  8  1  0  0  0  0
  4  5  2  0  0  0  0
  4  6  1  0  0  0  0
  4  7  1  0  0  0  0
  8  9  2  0  0  0  0
  8 10  1  0  0  0  0
  8 11  1  0  0  0  0
M  END
$$$$

 OpenBabel10082008492D

  9  9  0  0  0  0  0  0  0  0999 V2000
   -1.7321   -2.0000    0.0000 N   0  0  0  0  0  0  0  0  0  0  0  0
   -0.8660   -1.5000    0.0000 C   0  0  0  0  0  0  0  0  0  0  0  0
   -0.0000   -2.0000    0.0000 O   0  0  0  0  0  0  0  0  0  0  0  0
   -0.8660   -0.5000    0.0000 C   0  0  0  0  0  0  0  0  0  0  0  0
   -1.7321   -0.0000    0.0000 C   0  0  0  0  0  0  0  0  0  0  0  0
   -1.7321    1.0000    0.0000 C   0  0  0  0  0  0  0  0  0  0  0  0
   -0.8660    1.5000    0.0000 C   0  0  0  0  0  0  0  0  0  0  0  0
   -0.0000    1.0000    0.0000 N   0  0  0  0  0  0  0  0  0  0  0  0
    0.0000    0.0000    0.0000 C   0  0  0  0  0  0  0  0  0  0  0  0
  1  2  1  0  0  0  0
  2  3  2  0  0  0  0
  2  4  1  0  0  0  0
  4  9  1  0  0  0  0
  4  5  2  0  0  0  0
  5  6  1  0  0  0  0
  6  7  2  0  0  0  0
  7  8  1  0  0  0  0
  8  9  2  0  0  0  0
M  END
$$$$

 OpenBabel10082008492D

 30 32  0  0  1  0  0  0  0  0999 V2000
    1.7247   -2.0908    0.0000 C   0  0  0  0  0  0  0  0  0  0  0  0
    2.4319   -1.3837    0.0000 N   0  0  0  0  0  0  0  0  0  0  0  0
    3.3978   -1.6425    0.0000 C   0  0  0  0  0  0  0  0  0  0  0  0
    2.1730   -0.4177    0.0000 C   0  0  0  0  0  0  0  0  0  0  0  0
    2.8801    0.2894    0.0000 O   0  0  0  0  0  0  0  0  0  0  0  0
    1.2071   -0.1589    0.0000 N   0  0  0  0  0  0  0  0  0  0  0  0
    0.5000   -0.8660    0.0000 C   0  0  1  0  0  0  0  0  0  0  0  0
    0.8827   -1.7899    0.0000 H   0  0  0  0  0  0  0  0  0  0  0  0
   -0.0000   -1.7321    0.0000 C   0  0  0  0  0  0  0  0  0  0  0  0
   -1.0000   -1.7321    0.0000 C   0  0  0  0  0  0  0  0  0  0  0  0
   -1.5000   -0.8660    0.0000 C   0  0  2  0  0  0  0  0  0  0  0  0
   -2.3660   -0.3660    0.0000 H   0  0  0  0  0  0  0  0  0  0  0  0
   -2.3660   -1.3660    0.0000 C   0  0  0  0  0  0  0  0  0  0  0  0
   -3.2321   -0.8660    0.0000 C   0  0  0  0  0  0  0  0  0  0  0  0
   -4.0981   -1.3660    0.0000 N   0  0  0  0  0  0  0  0  0  0  0  0
   -4.0981   -2.3660    0.0000 C   0  0  0  0  0  0  0  0  0  0  0  0
   -4.9641   -2.8660    0.0000 C   0  0  0  0  0  0  0  0  0  0  0  0
   -5.8301   -2.3660    0.0000 N   0  0  0  0  0  0  0  0  0  0  0  0
   -6.6962   -2.8660    0.0000 C   0  0  0  0  0  0  0  0  0  0  0  0
   -6.6962   -3.8660    0.0000 C   0  0  0  0  0  0  0  0  0  0  0  0
   -7.5622   -4.3660    0.0000 C   0  0  0  0  0  0  0  0  0  0  0  0
   -8.4282   -3.8660    0.0000 C   0  0  0  0  0  0  0  0  0  0  0  0
   -8.4282   -2.8660    0.0000 C   0  0  0  0  0  0  0  0  0  0  0  0
   -9.2942   -2.3660    0.0000 Cl  0  0  0  0  0  0  0  0  0  0  0  0
   -7.5622   -2.3660    0.0000 C   0  0  0  0  0  0  0  0  0  0  0  0
   -7.5622   -1.3660    0.0000 Cl  0  0  0  0  0  0  0  0  0  0  0  0
   -5.8301   -1.3660    0.0000 C   0  0  0  0  0  0  0  0  0  0  0  0
   -4.9641   -0.8660    0.0000 C   0  0  0  0  0  0  0  0  0  0  0  0
   -1.0000   -0.0000    0.0000 C   0  0  0  0  0  0  0  0  0  0  0  0
    0.0000    0.0000    0.0000 C   0  0  0  0  0  0  0  0  0  0  0  0
  1  2  1  0  0  0  0
  2  3  1  0  0  0  0
  2  4  1  0  0  0  0
  4  5  2  0  0  0  0
  4  6  1  0  0  0  0
  6  7  1  0  0  0  0
  7  8  1  6  0  0  0
  7 30  1  0  0  0  0
  7  9  1  0  0  0  0
  9 10  1  0  0  0  0
 10 11  1  0  0  0  0
 11 12  1  1  0  0  0
 11 13  1  0  0  0  0
 11 29  1  0  0  0  0
 13 14  1  0  0  0  0
 14 15  1  0  0  0  0
 15 28  1  0  0  0  0
 15 16  1  0  0  0  0
 16 17  1  0  0  0  0
 17 18  1  0  0  0  0
 18 19  1  0  0  0  0
 18 27  1  0  0  0  0
 19 25  1  0  0  0  0
 19 20  2  0  0  0  0
 20 21  1  0  0  0  0
 21 22  2  0  0  0  0
 22 23  1  0  0  0  0
 23 24  1  0  0  0  0
 23 25  2  0  0  0  0
 25 26  1  0  0  0  0
 27 28  1  0  0  0  0
 29 30  1  0  0  0  0
M  END
$$$$

 OpenBabel10082008492D

 50 48  0  0  0  0  0  0  0  0999 V2000
   20.4186   -0.5000    0.0000 C   0  0  0  0  0  0  0  0  0  0  0  0
   20.4186   -1.5000    0.0000 C   0  0  0  0  0  0  0  0  0  0  0  0
   19.5526   -2.0000    0.0000 C   0  0  0  0  0  0  0  0  0  0  0  0
   18.6865   -1.5000    0.0000 C   0  0  0  0  0  0  0  0  0  0  0  0
   18.6865   -0.5000    0.0000 C   0  0  0  0  0  0  0  0  0  0  0  0
   17.8205   -0.0000    0.0000 C   0  0  0  0  0  0  0  0  0  0  0  0
   17.8205    1.0000    0.0000 C   0  0  0  0  0  0  0  0  0  0  0  0
   18.6865    1.5000    0.0000 C   0  0  0  0  0  0  0  0  0  0  0  0
   18.6865    2.5000    0.0000 C   0  0  0  0  0  0  0  0  0  0  0  0
   19.5526    3.0000    0.0000 C   0  0  0  0  0  0  0  0  0  0  0  0
   20.4186    2.5000    0.0000 C   0  0  0  0  0  0  0  0  0  0  0  0
   21.2846    3.0000    0.0000 C   0  0  0  0  0  0  0  0  0  0  0  0
   22.1506    2.5000    0.0000 C   0  0  0  0  0  0  0  0  0  0  0  0
   22.1506    1.5000    0.0000 C   0  0  0  0  0  0  0  0  0  0  0  0
   23.0167    1.0000    0.0000 C   0  0  0  0  0  0  0  0  0  0  0  0
   23.0167   -0.0000    0.0000 C   0  0  0  0  0  0  0  0  0  0  0  0
   22.1506   -0.5000    0.0000 C   0  0  0  0  0  0  0  0  0  0  0  0
   22.1506   -1.5000    0.0000 C   0  0  0  0  0  0  0  0  0  0  0  0
   21.2846   -2.0000    0.0000 C   0  0  0  0  0  0  0  0  0  0  0  0
   20.4186   -1.5000    0.0000 C   0  0  0  0  0  0  0  0  0  0  0  0
   19.5526   -2.0000    0.0000 C   0  0  0  0  0  0  0  0  0  0  0  0
   18.6865   -1.5000    0.0000 C   0  0  0  0  0  0  0  0  0  0  0  0
   18.6865   -0.5000    0.0000 O   0  0  0  0  0  0  0  0  0  0  0  0
   17.8205   -2.0000    0.0000 O   0  0  0  0  0  0  0  0  0  0  0  0
   16.9545   -1.5000    0.0000 C   0  0  0  0  0  0  0  0  0  0  0  0
   16.0885   -2.0000    0.0000 C   0  0  0  0  0  0  0  0  0  0  0  0
   17.8205   -4.5000    0.0000 C   0  0  0  0  0  0  0  0  0  0  0  0
   17.8205   -3.5000    0.0000 C   0  0  0  0  0  0  0  0  0  0  0  0
   16.9545   -3.0000    0.0000 C   0  0  0  0  0  0  0  0  0  0  0  0
   16.0885   -3.5000    0.0000 C   0  0  0  0  0  0  0  0  0  0  0  0
   16.0885   -4.5000    0.0000 C   0  0  0  0  0  0  0  0  0  0  0  0
   15.2224   -5.0000    0.0000 C   0  0  0  0  0  0  0  0  0  0  0  0
   15.2224   -6.0000    0.0000 C   0  0  0  0  0  0  0  0  0  0  0  0
   16.0885   -6.5000    0.0000 C   0  0  0  0  0  0  0  0  0  0  0  0
   16.0885   -7.5000    0.0000 C   0  0  0  0  0  0  0  0  0  0  0  0
   16.9545   -8.0000    0.0000 C   0  0  0  0  0  0  0  0  0  0  0  0
   17.8205   -7.5000    0.0000 C   0  0  0  0  0  0  0  0  0  0  0  0
   18.6865   -8.0000    0.0000 C   0  0  0  0  0  0  0  0  0  0  0  0
   19.5526   -7.5000    0.0000 C   0  0  0  0  0  0  0  0  0  0  0  0
   19.5526   -6.5000    0.0000 C   0  0  0  0  0  0  0  0  0  0  0  0
   20.4186   -6.0000    0.0000 C   0  0  0  0  0  0  0  0  0  0  0  0
   20.4186   -5.0000    0.0000 C   0  0  0  0  0  0  0  0  0  0  0  0
   19.5526   -4.5000    0.0000 C   0  0  0  0  0  0  0  0  0  0  0  0
   19.5526   -3.5000    0.0000 C   0  0  0  0  0  0  0  0  0  0  0  0
   18.6865   -3.0000    0.0000 C   0  0  0  0  0  0  0  0  0  0  0  0
   18.6865   -2.0000    0.0000 C   0  0  0  0  0  0  0  0  0  0  0  0
   17.8205   -1.5000    0.0000 O   0  0  0  0  0  0  0  0  0  0  0  0
   19.5526   -1.5000    0.0000 O   0  0  0  0  0  0  0  0  0  0  0  0
   19.5526   -0.5000    0.0000 C   0  0  0  0  0  0  0  0  0  0  0  0
   18.6865   -0.0000    0.0000 C   0  0  0  0  0  0  0  0  0  0  0  0
  1  2  1  0  0  0  0
  2  3  1  0  0  0  0
  3  4  2  0  0  0  0
  4  5  1  0  0  0  0
  5  6  1  0  0  0  0
  6  7  2  0  0  0  0
  7  8  1  0  0  0  0
  8  9  1  0  0  0  0
  9 10  2  0  0  0  0
 10 11  1  0  0  0  0
 11 12  1  0  0  0  0
 12 13  2  0  0  0  0
 13 14  1  0  0  0  0
 14 15  1  0  0  0  0
 15 16  2  0  0  0  0
 16 17  1  0  0  0  0
 17 18  1  0  0  0  0
 18 19  2  0  0  0  0
 19 20  1  0  0  0  0
 20 21  1  0  0  0  0
 21 22  1  0  0  0  0
 22 23  2  0  0  0  0
 22 24  1  0  0  0  0
 24 25  1  0  0  0  0
 25 26  1  0  0  0  0
 27 28  1  0  0  0  0
 28 29  1  0  0  0  0
 29 30  2  0  0  0  0
 30 31  1  0  0  0  0
 31 32  1  0  0  0  0
 32 33  2  0  0  0  0
 33 34  1  0  0  0  0
 34 35  1  0  0  0  0
 35 36  2  0  0  0  0
 36 37  1  0  0  0  0
 37 38  1  0  0  0  0
 38 39  2  0  0  0  0
 39 40  1  0  0  0  0
 40 41  1  0  0  0  0
 41 42  2  0  0  0  0
 42 43  1  0  0  0  0
 43 44  1  0  0  0  0
 44 45  1  0  0  0  0
 45 46  1  0  0  0  0
 46 47  2  0  0  0  0
 46 48  1  0  0  0  0
 48 49  1  0  0  0  0
 49 50  1  0  0  0  0
M  END
$$$$

 OpenBabel10082008492D

 31 33  0  0  0  0  0  0  0  0999 V2000
   -0.7431   -3.6691    0.0000 C   0  0  0  0  0  0  0  0  0  0  0  0
   -1.6092   -3.1691    0.0000 O   0  0  0  0  0  0  0  0  0  0  0  0
   -1.6092   -2.1691    0.0000 C   0  0  0  0  0  0  0  0  0  0  0  0
   -0.7431   -1.6691    0.0000 C   0  0  0  0  0  0  0  0  0  0  0  0
    0.1229   -2.1691    0.0000 C   0  0  0  0  0  0  0  0  0  0  0  0
   -0.7431   -0.6691    0.0000 C   0  0  0  0  0  0  0  0  0  0  0  0
   -1.6092   -0.1691    0.0000 C   0  0  0  0  0  0  0  0  0  0  0  0
   -2.4752   -0.6691    0.0000 C   0  0  0  0  0  0  0  0  0  0  0  0
   -3.3412   -0.1691    0.0000 O   0  0  0  0  0  0  0  0  0  0  0  0
   -2.4752   -1.6691    0.0000 C   0  0  0  0  0  0  0  0  0  0  0  0
   -3.3412   -2.1691    0.0000 C   0  0  0  0  0  0  0  0  0  0  0  0
   -3.3412   -3.1691    0.0000 C   0  0  0  0  0  0  0  0  0  0  0  0
   -4.2072   -3.6691    0.0000 C   0  0  0  0  0  0  0  0  0  0  0  0
   -5.0733   -3.1691    0.0000 C   0  0  0  0  0  0  0  0  0  0  0  0
   -4.2072   -4.6691    0.0000 C   0  0  0  0  0  0  0  0  0  0  0  0
   -5.0733   -5.1691    0.0000 C   0  0  0  0  0  0  0  0  0  0  0  0
   -5.0733   -6.1691    0.0000 C   0  0  0  0  0  0  0  0  0  0  0  0
   -5.9393   -6.6691    0.0000 O   0  0  0  0  0  0  0  0  0  0  0  0
   -4.2072   -6.6691    0.0000 O   0  0  0  0  0  0  0  0  0  0  0  0
   -4.2072   -7.6691    0.0000 C   0  0  0  0  0  0  0  0  0  0  0  0
   -5.0733   -8.1691    0.0000 C   0  0  0  0  0  0  0  0  0  0  0  0
   -5.0733   -9.1691    0.0000 N   0  0  0  0  0  0  0  0  0  0  0  0
   -4.2072   -9.6691    0.0000 C   0  0  0  0  0  0  0  0  0  0  0  0
   -4.2072  -10.6691    0.0000 C   0  0  0  0  0  0  0  0  0  0  0  0
   -5.0733  -11.1691    0.0000 O   0  0  0  0  0  0  0  0  0  0  0  0
   -5.9393  -10.6691    0.0000 C   0  0  0  0  0  0  0  0  0  0  0  0
   -5.9393   -9.6691    0.0000 C   0  0  0  0  0  0  0  0  0  0  0  0
   -1.4013    0.8090    0.0000 C   0  0  0  0  0  0  0  0  0  0  0  0
   -2.0704    1.5522    0.0000 O   0  0  0  0  0  0  0  0  0  0  0  0
   -0.4067    0.9135    0.0000 O   0  0  0  0  0  0  0  0  0  0  0  0
    0.0000    0.0000    0.0000 C   0  0  0  0  0  0  0  0  0  0  0  0
  1  2  1  0  0  0  0
  2  3  1  0  0  0  0
  3 10  1  0  0  0  0
  3  4  2  0  0  0  0
  4  5  1  0  0  0  0
  4  6  1  0  0  0  0
  6 31  1  0  0  0  0
  6  7  2  0  0  0  0
  7  8  1  0  0  0  0
  7 28  1  0  0  0  0
  8  9  1  0  0  0  0
  8 10  2  0  0  0  0
 10 11  1  0  0  0  0
 11 12  1  0  0  0  0
 12 13  2  0  0  0  0
 13 14  1  0  0  0  0
 13 15  1  0  0  0  0
 15 16  1  0  0  0  0
 16 17  1  0  0  0  0
 17 18  2  0  0  0  0
 17 19  1  0  0  0  0
 19 20  1  0  0  0  0
 20 21  1  0  0  0  0
 21 22  1  0  0  0  0
 22 27  1  0  0  0  0
 22 23  1  0  0  0  0
 23 24  1  0  0  0  0
 24 25  1  0  0  0  0
 25 26  1  0  0  0  0
 26 27  1  0  0  0  0
 28 29  2  0  0  0  0
 28 30  1  0  0  0  0
 30 31  1  0  0  0  0
M  END
$$$$

 OpenBabel10082008492D

 16 15  0  0  1  0  0  0  0  0999 V2000
    4.0000   -1.7321    0.0000 C   0  0  0  0  0  0  0  0  0  0  0  0
    4.8660   -1.2321    0.0000 C   0  0  0  0  0  0  0  0  0  0  0  0
    4.8660   -0.2321    0.0000 C   0  0  1  0  0  0  0  0  0  0  0  0
    5.8660   -0.2321    0.0000 H   0  0  0  0  0  0  0  0  0  0  0  0
    4.8660    0.7679    0.0000 C   0  0  0  0  0  0  0  0  0  0  0  0
    4.0000    1.2679    0.0000 O   0  0  0  0  0  0  0  0  0  0  0  0
    3.8660   -0.2321    0.0000 N   0  0  0  0  0  0  0  0  0  0  0  0
    3.3660    0.6340    0.0000 C   0  0  0  0  0  0  0  0  0  0  0  0
    2.3660    0.6340    0.0000 C   0  0  0  0  0  0  0  0  0  0  0  0
    1.8660    1.5000    0.0000 N   0  0  0  0  0  0  0  0  0  0  0  0
    0.8660    1.5000    0.0000 C   0  0  1  0  0  0  0  0  0  0  0  0
    0.8660    2.5000    0.0000 H   0  0  0  0  0  0  0  0  0  0  0  0
   -0.1340    1.5000    0.0000 C   0  0  0  0  0  0  0  0  0  0  0  0
   -0.6340    2.3660    0.0000 C   0  0  0  0  0  0  0  0  0  0  0  0
    0.8660    0.5000    0.0000 C   0  0  0  0  0  0  0  0  0  0  0  0
    0.0000    0.0000    0.0000 O   0  0  0  0  0  0  0  0  0  0  0  0
  1  2  1  0  0  0  0
  2  3  1  0  0  0  0
  3  4  1  1  0  0  0
  3  5  1  0  0  0  0
  3  7  1  0  0  0  0
  5  6  1  0  0  0  0
  7  8  1  0  0  0  0
  8  9  1  0  0  0  0
  9 10  1  0  0  0  0
 10 11  1  0  0  0  0
 11 12  1  1  0  0  0
 11 13  1  0  0  0  0
 11 15  1  0  0  0  0
 13 14  1  0  0  0  0
 15 16  1  0  0  0  0
M  END
$$$$

 OpenBabel10082008492D

 27 30  0  0  0  0  0  0  0  0999 V2000
    2.5981   -1.5000    0.0000 O   0  0  0  0  0  0  0  0  0  0  0  0
    2.5981   -0.5000    0.0000 C   0  0  0  0  0  0  0  0  0  0  0  0
    1.7321   -0.0000    0.0000 C   0  0  0  0  0  0  0  0  0  0  0  0
    0.8660   -0.5000    0.0000 N   0  0  0  0  0  0  0  0  0  0  0  0
    0.8660   -1.5000    0.0000 C   0  0  0  0  0  0  0  0  0  0  0  0
    0.0000   -2.0000    0.0000 C   0  0  0  0  0  0  0  0  0  0  0  0
   -0.8660   -1.5000    0.0000 N   0  0  0  0  0  0  0  0  0  0  0  0
   -1.7321   -2.0000    0.0000 C   0  0  0  0  0  0  0  0  0  0  0  0
   -2.5981   -1.5000    0.0000 C   0  0  0  0  0  0  0  0  0  0  0  0
   -3.4641   -2.0000    0.0000 C   0  0  0  0  0  0  0  0  0  0  0  0
   -4.3301   -1.5000    0.0000 N   0  0  0  0  0  0  0  0  0  0  0  0
   -5.1962   -2.0000    0.0000 C   0  0  0  0  0  0  0  0  0  0  0  0
   -5.1962   -3.0000    0.0000 C   0  0  0  0  0  0  0  0  0  0  0  0
   -6.0622   -3.5000    0.0000 C   0  0  0  0  0  0  0  0  0  0  0  0
   -6.9282   -3.0000    0.0000 C   0  0  0  0  0  0  0  0  0  0  0  0
   -6.9282   -2.0000    0.0000 C   0  0  0  0  0  0  0  0  0  0  0  0
   -6.0622   -1.5000    0.0000 C   0  0  0  0  0  0  0  0  0  0  0  0
   -6.0622   -0.5000    0.0000 S   0  0  0  0  0  0  0  0  0  0  0  0
   -5.1962    0.0000    0.0000 C   0  0  0  0  0  0  0  0  0  0  0  0
   -5.1962    1.0000    0.0000 C   0  0  0  0  0  0  0  0  0  0  0  0
   -4.3301    1.5000    0.0000 C   0  0  0  0  0  0  0  0  0  0  0  0
   -3.4641    1.0000    0.0000 C   0  0  0  0  0  0  0  0  0  0  0  0
   -2.5981    1.5000    0.0000 Cl  0  0  0  0  0  0  0  0  0  0  0  0
   -3.4641    0.0000    0.0000 C   0  0  0  0  0  0  0  0  0  0  0  0
   -4.3301   -0.5000    0.0000 C   0  0  0  0  0  0  0  0  0  0  0  0
   -0.8660   -0.5000    0.0000 C   0  0  0  0  0  0  0  0  0  0  0  0
   -0.0000   -0.0000    0.0000 C   0  0  0  0  0  0  0  0  0  0  0  0
  1  2  1  0  0  0  0
  2  3  1  0  0  0  0
  3  4  1  0  0  0  0
  4 27  1  0  0  0  0
  4  5  1  0  0  0  0
  5  6  1  0  0  0  0
  6  7  1  0  0  0  0
  7  8  1  0  0  0  0
  7 26  1  0  0  0  0
  8  9  1  0  0  0  0
  9 10  1  0  0  0  0
 10 11  1  0  0  0  0
 11 25  1  0  0  0  0
 11 12  1  0  0  0  0
 12 17  1  0  0  0  0
 12 13  2  0  0  0  0
 13 14  1  0  0  0  0
 14 15  2  0  0  0  0
 15 16  1  0  0  0  0
 16 17  2  0  0  0  0
 17 18  1  0  0  0  0
 18 19  1  0  0  0  0
 19 25  1  0  0  0  0
 19 20  2  0  0  0  0
 20 21  1  0  0  0  0
 21 22  2  0  0  0  0
 22 23  1  0  0  0  0
 22 24  1  0  0  0  0
 24 25  2  0  0  0  0
 26 27  1  0  0  0  0
M  END
$$$$

 OpenBabel10082008492D

 22 25  0  0  0  0  0  0  0  0999 V2000
    4.6337    2.8181    0.0000 Cl  0  0  0  0  0  0  0  0  0  0  0  0
    3.6781    2.5234    0.0000 C   0  0  0  0  0  0  0  0  0  0  0  0
    3.4556    1.5485    0.0000 C   0  0  0  0  0  0  0  0  0  0  0  0
    2.5000    1.2537    0.0000 C   0  0  0  0  0  0  0  0  0  0  0  0
    1.7670    1.9339    0.0000 C   0  0  0  0  0  0  0  0  0  0  0  0
    1.9895    2.9088    0.0000 C   0  0  0  0  0  0  0  0  0  0  0  0
    2.9451    3.2036    0.0000 C   0  0  0  0  0  0  0  0  0  0  0  0
    1.3660    3.6906    0.0000 C   0  0  0  0  0  0  0  0  0  0  0  0
    0.3660    3.6906    0.0000 C   0  0  0  0  0  0  0  0  0  0  0  0
   -0.2575    2.9088    0.0000 C   0  0  0  0  0  0  0  0  0  0  0  0
   -1.2130    3.2036    0.0000 C   0  0  0  0  0  0  0  0  0  0  0  0
   -1.9461    2.5234    0.0000 C   0  0  0  0  0  0  0  0  0  0  0  0
   -1.7236    1.5485    0.0000 C   0  0  0  0  0  0  0  0  0  0  0  0
   -0.7680    1.2537    0.0000 N   0  0  0  0  0  0  0  0  0  0  0  0
   -0.0349    1.9339    0.0000 C   0  0  0  0  0  0  0  0  0  0  0  0
    0.8660    1.5000    0.0000 C   0  0  0  0  0  0  0  0  0  0  0  0
    0.8660    0.5000    0.0000 C   0  0  0  0  0  0  0  0  0  0  0  0
    1.7321    0.0000    0.0000 C   0  0  0  0  0  0  0  0  0  0  0  0
    1.7321   -1.0000    0.0000 C   0  0  0  0  0  0  0  0  0  0  0  0
    0.8660   -1.5000    0.0000 N   0  0  0  0  0  0  0  0  0  0  0  0
    0.0000   -1.0000    0.0000 C   0  0  0  0  0  0  0  0  0  0  0  0
    0.0000   -0.0000    0.0000 C   0  0  0  0  0  0  0  0  0  0  0  0
  1  2  1  0  0  0  0
  2  7  1  0  0  0  0
  2  3  2  0  0  0  0
  3  4  1  0  0  0  0
  4  5  2  0  0  0  0
  5 16  1  0  0  0  0
  5  6  1  0  0  0  0
  6  7  2  0  0  0  0
  6  8  1  0  0  0  0
  8  9  1  0  0  0  0
  9 10  1  0  0  0  0
 10 15  1  0  0  0  0
 10 11  2  0  0  0  0
 11 12  1  0  0  0  0
 12 13  2  0  0  0  0
 13 14  1  0  0  0  0
 14 15  2  0  0  0  0
 15 16  1  0  0  0  0
 16 17  2  0  0  0  0
 17 22  1  0  0  0  0
 17 18  1  0  0  0  0
 18 19  1  0  0  0  0
 19 20  1  0  0  0  0
 20 21  1  0  0  0  0
 21 22  1  0  0  0  0
M  END
$$$$

 OpenBabel10082008492D

 23 26  0  0  0  0  0  0  0  0999 V2000
    1.1012    3.3573    0.0000 C   0  0  0  0  0  0  0  0  0  0  0  0
    1.0863    2.3574    0.0000 C   0  0  0  0  0  0  0  0  0  0  0  0
    1.8864    1.7576    0.0000 N   0  0  0  0  0  0  0  0  0  0  0  0
    1.5632    0.8113    0.0000 N   0  0  0  0  0  0  0  0  0  0  0  0
    0.5633    0.8262    0.0000 C   0  0  0  0  0  0  0  0  0  0  0  0
    0.2686    1.7818    0.0000 N   0  0  0  0  0  0  0  0  0  0  0  0
   -0.6623    2.1472    0.0000 C   0  0  0  0  0  0  0  0  0  0  0  0
   -0.6623    3.1472    0.0000 C   0  0  0  0  0  0  0  0  0  0  0  0
   -1.5283    3.6472    0.0000 C   0  0  0  0  0  0  0  0  0  0  0  0
   -2.3944    3.1472    0.0000 C   0  0  0  0  0  0  0  0  0  0  0  0
   -3.2604    3.6472    0.0000 Cl  0  0  0  0  0  0  0  0  0  0  0  0
   -2.3944    2.1472    0.0000 C   0  0  0  0  0  0  0  0  0  0  0  0
   -1.5283    1.6472    0.0000 C   0  0  0  0  0  0  0  0  0  0  0  0
   -1.6774    0.6583    0.0000 C   0  0  0  0  0  0  0  0  0  0  0  0
   -2.6329    0.3636    0.0000 C   0  0  0  0  0  0  0  0  0  0  0  0
   -2.8555   -0.6114    0.0000 C   0  0  0  0  0  0  0  0  0  0  0  0
   -3.8110   -0.9061    0.0000 C   0  0  0  0  0  0  0  0  0  0  0  0
   -4.5441   -0.2259    0.0000 C   0  0  0  0  0  0  0  0  0  0  0  0
   -4.3216    0.7490    0.0000 C   0  0  0  0  0  0  0  0  0  0  0  0
   -3.3660    1.0437    0.0000 C   0  0  0  0  0  0  0  0  0  0  0  0
   -3.1435    2.0187    0.0000 Cl  0  0  0  0  0  0  0  0  0  0  0  0
   -0.9972   -0.0747    0.0000 N   0  0  0  0  0  0  0  0  0  0  0  0
    0.0000   -0.0000    0.0000 C   0  0  0  0  0  0  0  0  0  0  0  0
  1  2  1  0  0  0  0
  2  6  1  0  0  0  0
  2  3  2  0  0  0  0
  3  4  1  0  0  0  0
  4  5  2  0  0  0  0
  5 23  1  0  0  0  0
  5  6  1  0  0  0  0
  6  7  1  0  0  0  0
  7 13  1  0  0  0  0
  7  8  2  0  0  0  0
  8  9  1  0  0  0  0
  9 10  2  0  0  0  0
 10 11  1  0  0  0  0
 10 12  1  0  0  0  0
 12 13  2  0  0  0  0
 13 14  1  0  0  0  0
 14 15  1  0  0  0  0
 14 22  2  0  0  0  0
 15 20  1  0  0  0  0
 15 16  2  0  0  0  0
 16 17  1  0  0  0  0
 17 18  2  0  0  0  0
 18 19  1  0  0  0  0
 19 20  2  0  0  0  0
 20 21  1  0  0  0  0
 22 23  1  0  0  0  0
M  END
$$$$

 OpenBabel10082008492D

 35 38  0  0  1  0  0  0  0  0999 V2000
    7.8670   -0.3814    0.0000 C   0  0  0  0  0  0  0  0  0  0  0  0
    6.8928   -0.4840    0.0000 C   0  0  0  0  0  0  0  0  0  0  0  0
    6.4945   -1.3790    0.0000 C   0  0  0  0  0  0  0  0  0  0  0  0
    5.5203   -1.4815    0.0000 C   0  0  0  0  0  0  0  0  0  0  0  0
    4.9444   -0.6892    0.0000 N   0  0  0  0  0  0  0  0  0  0  0  0
    5.3426    0.2058    0.0000 C   0  0  0  0  0  0  0  0  0  0  0  0
    6.3168    0.3084    0.0000 C   0  0  0  0  0  0  0  0  0  0  0  0
    6.7151    1.2034    0.0000 C   0  0  0  0  0  0  0  0  0  0  0  0
    7.6893    1.3060    0.0000 C   0  0  0  0  0  0  0  0  0  0  0  0
    3.9702   -0.7917    0.0000 C   0  0  0  0  0  0  0  0  0  0  0  0
    3.3942    0.0006    0.0000 C   0  0  3  0  0  0  0  0  0  0  0  0
    3.7925    0.8956    0.0000 O   0  0  0  0  0  0  0  0  0  0  0  0
    2.5460   -0.4893    0.0000 C   0  0  0  0  0  0  0  0  0  0  0  0
    2.5461   -1.4689    0.0000 C   0  0  0  0  0  0  0  0  0  0  0  0
    1.6973   -1.9592    0.0000 C   0  0  0  0  0  0  0  0  0  0  0  0
    1.6976   -2.9655    0.0000 Cl  0  0  0  0  0  0  0  0  0  0  0  0
    0.8489   -1.4696    0.0000 C   0  0  0  0  0  0  0  0  0  0  0  0
    0.8485   -0.4896    0.0000 C   0  0  0  0  0  0  0  0  0  0  0  0
    1.6973    0.0007    0.0000 C   0  0  0  0  0  0  0  0  0  0  0  0
    0.8484    1.4703    0.0000 C   0  0  0  0  0  0  0  0  0  0  0  0
    0.8480    2.4503    0.0000 C   0  0  0  0  0  0  0  0  0  0  0  0
   -0.0005    2.9399    0.0000 C   0  0  0  0  0  0  0  0  0  0  0  0
   -0.8493    2.4496    0.0000 C   0  0  0  0  0  0  0  0  0  0  0  0
   -1.7209    2.9526    0.0000 Cl  0  0  0  0  0  0  0  0  0  0  0  0
   -0.8491    1.4700    0.0000 C   0  0  0  0  0  0  0  0  0  0  0  0
   -0.0004    0.9800    0.0000 C   0  0  0  0  0  0  0  0  0  0  0  0
    0.0000   -0.0000    0.0000 C   0  0  0  0  0  0  0  0  0  0  0  0
   -0.8482   -0.4901    0.0000 C   0  0  0  0  0  0  0  0  0  0  0  0
   -1.2463   -1.3851    0.0000 C   0  0  0  0  0  0  0  0  0  0  0  0
   -2.2205   -1.4878    0.0000 C   0  0  0  0  0  0  0  0  0  0  0  0
   -2.6187   -2.3828    0.0000 C   0  0  0  0  0  0  0  0  0  0  0  0
   -2.0426   -3.1752    0.0000 C   0  0  0  0  0  0  0  0  0  0  0  0
   -2.4407   -4.0702    0.0000 Cl  0  0  0  0  0  0  0  0  0  0  0  0
   -1.0684   -3.0724    0.0000 C   0  0  0  0  0  0  0  0  0  0  0  0
   -0.6703   -2.1774    0.0000 C   0  0  0  0  0  0  0  0  0  0  0  0
  1  2  1  0  0  0  0
  2  3  1  0  0  0  0
  3  4  1  0  0  0  0
  4  5  1  0  0  0  0
  5  6  1  0  0  0  0
  5 10  1  0  0  0  0
  6  7  1  0  0  0  0
  7  8  1  0  0  0  0
  8  9  1  0  0  0  0
 10 11  1  0  0  0  0
 11 12  1  0  0  0  0
 11 13  1  0  0  0  0
 13 19  1  0  0  0  0
 13 14  2  0  0  0  0
 14 15  1  0  0  0  0
 15 16  1  0  0  0  0
 15 17  2  0  0  0  0
 17 18  1  0  0  0  0
 18 27  1  0  0  0  0
 18 19  2  0  0  0  0
 19 20  1  0  0  0  0
 20 26  1  0  0  0  0
 20 21  2  0  0  0  0
 21 22  1  0  0  0  0
 22 23  2  0  0  0  0
 23 24  1  0  0  0  0
 23 25  1  0  0  0  0
 25 26  2  0  0  0  0
 26 27  1  0  0  0  0
 27 28  2  0  0  0  0
 28 29  1  0  0  0  0
 29 35  1  0  0  0  0
 29 30  2  0  0  0  0
 30 31  1  0  0  0  0
 31 32  2  0  0  0  0
 32 33  1  0  0  0  0
 32 34  1  0  0  0  0
 34 35  2  0  0  0  0
M  END
$$$$

 OpenBabel10082008492D

 30 33  0  0  1  0  0  0  0  0999 V2000
    0.5000   -1.8660    0.0000 C   0  0  0  0  0  0  0  0  0  0  0  0
    0.0000   -1.0000    0.0000 C   0  0  1  0  0  0  0  0  0  0  0  0
    1.0000   -1.0000    0.0000 H   0  0  0  0  0  0  0  0  0  0  0  0
   -0.8660   -1.5000    0.0000 C   0  0  0  0  0  0  0  0  0  0  0  0
   -1.7321   -1.0000    0.0000 N   0  0  0  0  0  0  0  0  0  0  0  0
   -2.5981   -1.5000    0.0000 C   0  0  0  0  0  0  0  0  0  0  0  0
   -2.5981   -2.5000    0.0000 C   0  0  0  0  0  0  0  0  0  0  0  0
   -1.7321   -3.0000    0.0000 F   0  0  0  0  0  0  0  0  0  0  0  0
   -3.4641   -3.0000    0.0000 C   0  0  0  0  0  0  0  0  0  0  0  0
   -3.4641   -4.0000    0.0000 N   0  0  0  0  0  0  0  0  0  0  0  0
   -4.3301   -2.5000    0.0000 C   0  0  0  0  0  0  0  0  0  0  0  0
   -5.1962   -3.0000    0.0000 C   0  0  0  0  0  0  0  0  0  0  0  0
   -5.1962   -4.0000    0.0000 O   0  0  0  0  0  0  0  0  0  0  0  0
   -6.0622   -2.5000    0.0000 C   0  0  0  0  0  0  0  0  0  0  0  0
   -6.9282   -3.0000    0.0000 C   0  0  0  0  0  0  0  0  0  0  0  0
   -7.7942   -2.5000    0.0000 O   0  0  0  0  0  0  0  0  0  0  0  0
   -6.9282   -4.0000    0.0000 O   0  0  0  0  0  0  0  0  0  0  0  0
   -6.0622   -1.5000    0.0000 C   0  0  0  0  0  0  0  0  0  0  0  0
   -5.1962   -1.0000    0.0000 N   0  0  0  0  0  0  0  0  0  0  0  0
   -5.1962   -0.0000    0.0000 C   0  0  0  0  0  0  0  0  0  0  0  0
   -5.6962    0.8660    0.0000 C   0  0  0  0  0  0  0  0  0  0  0  0
   -4.6962    0.8660    0.0000 C   0  0  0  0  0  0  0  0  0  0  0  0
   -4.3301   -1.5000    0.0000 C   0  0  0  0  0  0  0  0  0  0  0  0
   -3.4641   -1.0000    0.0000 C   0  0  0  0  0  0  0  0  0  0  0  0
   -3.4641   -0.0000    0.0000 F   0  0  0  0  0  0  0  0  0  0  0  0
   -1.7321   -0.0000    0.0000 C   0  0  0  0  0  0  0  0  0  0  0  0
   -0.8660    0.5000    0.0000 C   0  0  1  0  0  0  0  0  0  0  0  0
   -0.3660    1.3660    0.0000 H   0  0  0  0  0  0  0  0  0  0  0  0
   -1.3660    1.3660    0.0000 C   0  0  0  0  0  0  0  0  0  0  0  0
    0.0000   -0.0000    0.0000 N   0  0  0  0  0  0  0  0  0  0  0  0
  1  2  1  0  0  0  0
  2  3  1  6  0  0  0
  2 30  1  0  0  0  0
  2  4  1  0  0  0  0
  4  5  1  0  0  0  0
  5  6  1  0  0  0  0
  5 26  1  0  0  0  0
  6 24  1  0  0  0  0
  6  7  2  0  0  0  0
  7  8  1  0  0  0  0
  7  9  1  0  0  0  0
  9 10  1  0  0  0  0
  9 11  2  0  0  0  0
 11 23  1  0  0  0  0
 11 12  1  0  0  0  0
 12 13  2  0  0  0  0
 12 14  1  0  0  0  0
 14 15  1  0  0  0  0
 14 18  2  0  0  0  0
 15 16  2  0  0  0  0
 15 17  1  0  0  0  0
 18 19  1  0  0  0  0
 19 20  1  0  0  0  0
 19 23  1  0  0  0  0
 20 22  1  0  0  0  0
 20 21  1  0  0  0  0
 21 22  1  0  0  0  0
 23 24  2  0  0  0  0
 24 25  1  0  0  0  0
 26 27  1  0  0  0  0
 27 28  1  6  0  0  0
 27 29  1  0  0  0  0
 27 30  1  0  0  0  0
M  END
$$$$

 OpenBabel10082008492D

 23 24  0  0  0  0  0  0  0  0999 V2000
   -3.4641   -1.0000    0.0000 O   0  0  0  0  0  0  0  0  0  0  0  0
   -3.4641   -0.0000    0.0000 C   0  0  0  0  0  0  0  0  0  0  0  0
   -4.3301    0.5000    0.0000 C   0  0  0  0  0  0  0  0  0  0  0  0
   -4.3301    1.5000    0.0000 C   0  0  0  0  0  0  0  0  0  0  0  0
   -3.4641    2.0000    0.0000 C   0  0  0  0  0  0  0  0  0  0  0  0
   -2.5981    1.5000    0.0000 C   0  0  0  0  0  0  0  0  0  0  0  0
   -1.7321    2.0000    0.0000 O   0  0  0  0  0  0  0  0  0  0  0  0
   -2.5981    0.5000    0.0000 C   0  0  0  0  0  0  0  0  0  0  0  0
   -1.7321   -0.0000    0.0000 C   0  0  0  0  0  0  0  0  0  0  0  0
   -1.7321   -1.0000    0.0000 O   0  0  0  0  0  0  0  0  0  0  0  0
   -0.8660    0.5000    0.0000 C   0  0  0  0  0  0  0  0  0  0  0  0
   -0.8660    1.5000    0.0000 C   0  0  0  0  0  0  0  0  0  0  0  0
   -0.0000    2.0000    0.0000 C   0  0  0  0  0  0  0  0  0  0  0  0
    0.8660    1.5000    0.0000 C   0  0  0  0  0  0  0  0  0  0  0  0
    1.7321    2.0000    0.0000 C   0  0  0  0  0  0  0  0  0  0  0  0
    2.2321    2.8660    0.0000 F   0  0  0  0  0  0  0  0  0  0  0  0
    1.2321    2.8660    0.0000 F   0  0  0  0  0  0  0  0  0  0  0  0
    2.5981    1.5000    0.0000 F   0  0  0  0  0  0  0  0  0  0  0  0
    0.8660    0.5000    0.0000 C   0  0  0  0  0  0  0  0  0  0  0  0
    0.0000    0.0000    0.0000 C   0  0  0  0  0  0  0  0  0  0  0  0
    0.0000   -1.0000    0.0000 N   0  3  0  0  0  0  0  0  0  0  0  0
   -0.8660   -1.5000    0.0000 O   0  0  0  0  0  0  0  0  0  0  0  0
    0.8660   -1.5000    0.0000 O   0  5  0  0  0  0  0  0  0  0  0  0
  1  2  2  0  0  0  0
  2  8  1  0  0  0  0
  2  3  1  0  0  0  0
  3  4  1  0  0  0  0
  4  5  1  0  0  0  0
  5  6  1  0  0  0  0
  6  7  2  0  0  0  0
  6  8  1  0  0  0  0
  8  9  1  0  0  0  0
  9 10  2  0  0  0  0
  9 11  1  0  0  0  0
 11 20  1  0  0  0  0
 11 12  2  0  0  0  0
 12 13  1  0  0  0  0
 13 14  2  0  0  0  0
 14 15  1  0  0  0  0
 14 19  1  0  0  0  0
 15 16  1  0  0  0  0
 15 17  1  0  0  0  0
 15 18  1  0  0  0  0
 19 20  2  0  0  0  0
 20 21  1  0  0  0  0
 21 22  2  0  0  0  0
 21 23  1  0  0  0  0
M  CHG  2  21   1  23  -1
M  END
$$$$

 OpenBabel10082008492D

 26 29  0  0  1  0  0  0  0  0999 V2000
   -2.5643   -1.7636    0.0000 C   0  0  0  0  0  0  0  0  0  0  0  0
   -1.5643   -1.7636    0.0000 N   0  3  3  0  0  0  0  0  0  0  0  0
   -0.5984   -2.0224    0.0000 C   0  0  0  0  0  0  0  0  0  0  0  0
    0.1088   -1.3153    0.0000 C   0  0  0  0  0  0  0  0  0  0  0  0
   -0.1501   -0.3493    0.0000 C   0  0  3  0  0  0  0  0  0  0  0  0
   -1.1160   -0.0905    0.0000 C   0  0  0  0  0  0  0  0  0  0  0  0
   -1.8231   -0.7976    0.0000 C   0  0  0  0  0  0  0  0  0  0  0  0
   -1.0346   -0.2497    0.0000 C   0  0  3  0  0  0  0  0  0  0  0  0
    2.5685    1.4829    0.0000 O   0  0  0  0  0  0  0  0  0  0  0  0
    1.7124    0.9886    0.0000 C   0  0  0  0  0  0  0  0  0  0  0  0
    0.8562    1.4829    0.0000 O   0  0  0  0  0  0  0  0  0  0  0  0
    1.7124   -0.0000    0.0000 C   0  0  0  0  0  0  0  0  0  0  0  0
    2.2067   -0.8562    0.0000 O   0  0  0  0  0  0  0  0  0  0  0  0
    0.8562   -0.4943    0.0000 C   0  0  0  0  0  0  0  0  0  0  0  0
    0.8562   -1.4829    0.0000 C   0  0  0  0  0  0  0  0  0  0  0  0
   -0.0000   -1.9773    0.0000 C   0  0  0  0  0  0  0  0  0  0  0  0
   -0.8562   -1.4829    0.0000 C   0  0  0  0  0  0  0  0  0  0  0  0
   -0.8562   -0.4943    0.0000 C   0  0  0  0  0  0  0  0  0  0  0  0
    0.0000   -0.0000    0.0000 C   0  0  0  0  0  0  0  0  0  0  0  0
    2.5685   -0.4943    0.0000 C   0  0  0  0  0  0  0  0  0  0  0  0
    3.5399   -0.3105    0.0000 C   0  0  0  0  0  0  0  0  0  0  0  0
    4.1848   -1.0599    0.0000 C   0  0  0  0  0  0  0  0  0  0  0  0
    3.8583   -1.9930    0.0000 C   0  0  0  0  0  0  0  0  0  0  0  0
    2.8869   -2.1768    0.0000 C   0  0  0  0  0  0  0  0  0  0  0  0
    2.2420   -1.4275    0.0000 C   0  0  0  0  0  0  0  0  0  0  0  0
   -1.6639   -0.8791    0.0000 C   0  0  0  0  0  0  0  0  0  0  0  0
  1  2  1  0  0  0  0
  2  7  1  0  0  0  0
  2 26  1  0  0  0  0
  2  3  1  0  0  0  0
  3  4  1  0  0  0  0
  4  5  1  0  0  0  0
  5  6  1  0  0  0  0
  5  8  1  0  0  0  0
  6  7  1  0  0  0  0
  8  9  1  0  0  0  0
  8 26  1  0  0  0  0
  9 10  1  0  0  0  0
 10 11  2  0  0  0  0
 10 12  1  0  0  0  0
 12 13  1  0  0  0  0
 12 14  1  0  0  0  0
 12 20  1  0  0  0  0
 14 19  1  0  0  0  0
 14 15  2  0  0  0  0
 15 16  1  0  0  0  0
 16 17  2  0  0  0  0
 17 18  1  0  0  0  0
 18 19  2  0  0  0  0
 20 25  1  0  0  0  0
 20 21  2  0  0  0  0
 21 22  1  0  0  0  0
 22 23  2  0  0  0  0
 23 24  1  0  0  0  0
 24 25  2  0  0  0  0
M  CHG  1   2   1
M  END
$$$$

 OpenBabel10082008492D

 29 31  0  0  1  0  0  0  0  0999 V2000
   -0.0933   -1.7796    0.0000 N   0  0  0  0  0  0  0  0  0  0  0  0
   -0.5000   -0.8660    0.0000 C   0  0  0  0  0  0  0  0  0  0  0  0
   -1.4781   -0.6581    0.0000 N   0  0  0  0  0  0  0  0  0  0  0  0
   -1.5827    0.3364    0.0000 C   0  0  0  0  0  0  0  0  0  0  0  0
   -2.4487    0.8364    0.0000 C   0  0  0  0  0  0  0  0  0  0  0  0
   -3.3147    0.3364    0.0000 C   0  0  0  0  0  0  0  0  0  0  0  0
   -4.1808    0.8364    0.0000 O   0  0  0  0  0  0  0  0  0  0  0  0
   -3.3147   -0.6636    0.0000 N   0  0  0  0  0  0  0  0  0  0  0  0
   -4.1808   -1.1636    0.0000 C   0  0  0  0  0  0  0  0  0  0  0  0
   -4.1808   -2.1636    0.0000 C   0  0  0  0  0  0  0  0  0  0  0  0
   -5.0468   -2.6636    0.0000 C   0  0  0  0  0  0  0  0  0  0  0  0
   -5.9128   -2.1636    0.0000 C   0  0  0  0  0  0  0  0  0  0  0  0
   -6.7788   -2.6636    0.0000 C   0  0  0  0  0  0  0  0  0  0  0  0
   -7.6449   -2.1636    0.0000 C   0  0  0  0  0  0  0  0  0  0  0  0
   -8.5109   -2.6636    0.0000 N   0  0  0  0  0  0  0  0  0  0  0  0
   -9.3769   -2.1636    0.0000 C   0  0  0  0  0  0  0  0  0  0  0  0
  -10.2429   -2.6636    0.0000 C   0  0  2  0  0  0  0  0  0  0  0  0
  -10.7429   -3.5296    0.0000 H   0  0  0  0  0  0  0  0  0  0  0  0
   -9.7429   -3.5296    0.0000 O   0  0  0  0  0  0  0  0  0  0  0  0
  -11.1090   -2.1636    0.0000 C   0  0  0  0  0  0  0  0  0  0  0  0
  -11.9750   -2.6636    0.0000 C   0  0  0  0  0  0  0  0  0  0  0  0
  -12.8410   -2.1636    0.0000 C   0  0  0  0  0  0  0  0  0  0  0  0
  -12.8410   -1.1636    0.0000 C   0  0  0  0  0  0  0  0  0  0  0  0
  -11.9750   -0.6636    0.0000 C   0  0  0  0  0  0  0  0  0  0  0  0
  -11.1090   -1.1636    0.0000 C   0  0  0  0  0  0  0  0  0  0  0  0
   -5.9128   -1.1636    0.0000 C   0  0  0  0  0  0  0  0  0  0  0  0
   -5.0468   -0.6636    0.0000 C   0  0  0  0  0  0  0  0  0  0  0  0
   -0.6691    0.7431    0.0000 C   0  0  0  0  0  0  0  0  0  0  0  0
   -0.0000   -0.0000    0.0000 S   0  0  0  0  0  0  0  0  0  0  0  0
  1  2  1  0  0  0  0
  2 29  1  0  0  0  0
  2  3  2  0  0  0  0
  3  4  1  0  0  0  0
  4  5  1  0  0  0  0
  4 28  2  0  0  0  0
  5  6  1  0  0  0  0
  6  7  2  0  0  0  0
  6  8  1  0  0  0  0
  8  9  1  0  0  0  0
  9 27  1  0  0  0  0
  9 10  2  0  0  0  0
 10 11  1  0  0  0  0
 11 12  2  0  0  0  0
 12 13  1  0  0  0  0
 12 26  1  0  0  0  0
 13 14  1  0  0  0  0
 14 15  1  0  0  0  0
 15 16  1  0  0  0  0
 16 17  1  0  0  0  0
 17 18  1  1  0  0  0
 17 19  1  0  0  0  0
 17 20  1  0  0  0  0
 20 25  1  0  0  0  0
 20 21  2  0  0  0  0
 21 22  1  0  0  0  0
 22 23  2  0  0  0  0
 23 24  1  0  0  0  0
 24 25  2  0  0  0  0
 26 27  2  0  0  0  0
 28 29  1  0  0  0  0
M  END
$$$$

 OpenBabel10082008492D

 19 21  0  0  0  0  0  0  0  0999 V2000
   -2.1530   -1.4922    0.0000 N   0  0  0  0  0  0  0  0  0  0  0  0
   -1.1974   -1.1974    0.0000 C   0  0  0  0  0  0  0  0  0  0  0  0
   -0.4644   -1.8776    0.0000 O   0  0  0  0  0  0  0  0  0  0  0  0
   -0.9749   -0.2225    0.0000 N   0  0  0  0  0  0  0  0  0  0  0  0
   -1.7568    0.4010    0.0000 C   0  0  0  0  0  0  0  0  0  0  0  0
   -2.6228   -0.0990    0.0000 C   0  0  0  0  0  0  0  0  0  0  0  0
   -3.4888    0.4010    0.0000 C   0  0  0  0  0  0  0  0  0  0  0  0
   -3.4888    1.4010    0.0000 C   0  0  0  0  0  0  0  0  0  0  0  0
   -2.6228    1.9010    0.0000 C   0  0  0  0  0  0  0  0  0  0  0  0
   -1.7568    1.4010    0.0000 C   0  0  0  0  0  0  0  0  0  0  0  0
   -0.9749    2.0245    0.0000 C   0  0  0  0  0  0  0  0  0  0  0  0
   -0.0000    1.8019    0.0000 C   0  0  0  0  0  0  0  0  0  0  0  0
    0.6235    2.5838    0.0000 O   0  0  0  0  0  0  0  0  0  0  0  0
    0.4339    0.9010    0.0000 C   0  0  0  0  0  0  0  0  0  0  0  0
    1.4311    0.9757    0.0000 C   0  0  0  0  0  0  0  0  0  0  0  0
    1.9944    0.1495    0.0000 C   0  0  0  0  0  0  0  0  0  0  0  0
    1.5605   -0.7515    0.0000 C   0  0  0  0  0  0  0  0  0  0  0  0
    0.5633   -0.8262    0.0000 C   0  0  0  0  0  0  0  0  0  0  0  0
   -0.0000   -0.0000    0.0000 C   0  0  0  0  0  0  0  0  0  0  0  0
  1  2  1  0  0  0  0
  2  3  2  0  0  0  0
  2  4  1  0  0  0  0
  4 19  1  0  0  0  0
  4  5  1  0  0  0  0
  5 10  1  0  0  0  0
  5  6  2  0  0  0  0
  6  7  1  0  0  0  0
  7  8  2  0  0  0  0
  8  9  1  0  0  0  0
  9 10  2  0  0  0  0
 10 11  1  0  0  0  0
 11 12  1  0  0  0  0
 12 13  2  0  0  0  0
 12 14  1  0  0  0  0
 14 19  1  0  0  0  0
 14 15  2  0  0  0  0
 15 16  1  0  0  0  0
 16 17  2  0  0  0  0
 17 18  1  0  0  0  0
 18 19  2  0  0  0  0
M  END
$$$$

 OpenBabel10082008492D

 16 16  0  0  0  0  0  0  0  0999 V2000
    2.5981   -0.5000    0.0000 O   0  0  0  0  0  0  0  0  0  0  0  0
    1.7321   -0.0000    0.0000 C   0  0  0  0  0  0  0  0  0  0  0  0
    1.7321    1.0000    0.0000 C   0  0  0  0  0  0  0  0  0  0  0  0
    2.5981    1.5000    0.0000 C   0  0  0  0  0  0  0  0  0  0  0  0
    2.5981    2.5000    0.0000 Br  0  0  0  0  0  0  0  0  0  0  0  0
    0.8660   -0.5000    0.0000 N   0  0  0  0  0  0  0  0  0  0  0  0
    0.8660   -1.5000    0.0000 C   0  0  0  0  0  0  0  0  0  0  0  0
    0.0000   -2.0000    0.0000 C   0  0  0  0  0  0  0  0  0  0  0  0
   -0.8660   -1.5000    0.0000 N   0  0  0  0  0  0  0  0  0  0  0  0
   -1.7321   -2.0000    0.0000 C   0  0  0  0  0  0  0  0  0  0  0  0
   -2.5981   -1.5000    0.0000 O   0  0  0  0  0  0  0  0  0  0  0  0
   -1.7321   -3.0000    0.0000 C   0  0  0  0  0  0  0  0  0  0  0  0
   -2.5981   -3.5000    0.0000 C   0  0  0  0  0  0  0  0  0  0  0  0
   -2.5981   -4.5000    0.0000 Br  0  0  0  0  0  0  0  0  0  0  0  0
   -0.8660   -0.5000    0.0000 C   0  0  0  0  0  0  0  0  0  0  0  0
   -0.0000   -0.0000    0.0000 C   0  0  0  0  0  0  0  0  0  0  0  0
  1  2  2  0  0  0  0
  2  3  1  0  0  0  0
  2  6  1  0  0  0  0
  3  4  1  0  0  0  0
  4  5  1  0  0  0  0
  6 16  1  0  0  0  0
  6  7  1  0  0  0  0
  7  8  1  0  0  0  0
  8  9  1  0  0  0  0
  9 10  1  0  0  0  0
  9 15  1  0  0  0  0
 10 11  2  0  0  0  0
 10 12  1  0  0  0  0
 12 13  1  0  0  0  0
 13 14  1  0  0  0  0
 15 16  1  0  0  0  0
M  END
$$$$

 OpenBabel10082008492D

 38 41  0  0  0  0  0  0  0  0999 V2000
    7.9282   -4.0000    0.0000 C   0  0  0  0  0  0  0  0  0  0  0  0
    7.9282   -3.0000    0.0000 C   0  0  0  0  0  0  0  0  0  0  0  0
    7.0622   -2.5000    0.0000 C   0  0  0  0  0  0  0  0  0  0  0  0
    7.0622   -1.5000    0.0000 C   0  0  0  0  0  0  0  0  0  0  0  0
    6.1962   -1.0000    0.0000 N   0  0  0  0  0  0  0  0  0  0  0  0
    5.3301   -1.5000    0.0000 C   0  0  0  0  0  0  0  0  0  0  0  0
    5.3301   -2.5000    0.0000 N   0  0  0  0  0  0  0  0  0  0  0  0
    4.4641   -3.0000    0.0000 C   0  0  0  0  0  0  0  0  0  0  0  0
    3.5981   -2.5000    0.0000 C   0  0  0  0  0  0  0  0  0  0  0  0
    2.7321   -3.0000    0.0000 Cl  0  0  0  0  0  0  0  0  0  0  0  0
    3.5981   -1.5000    0.0000 C   0  0  0  0  0  0  0  0  0  0  0  0
    2.7321   -1.0000    0.0000 N   0  0  0  0  0  0  0  0  0  0  0  0
    1.8660   -1.5000    0.0000 C   0  0  0  0  0  0  0  0  0  0  0  0
    1.8660   -2.5000    0.0000 C   0  0  0  0  0  0  0  0  0  0  0  0
    1.0000   -3.0000    0.0000 C   0  0  0  0  0  0  0  0  0  0  0  0
    0.1340   -2.5000    0.0000 C   0  0  0  0  0  0  0  0  0  0  0  0
    0.1340   -1.5000    0.0000 C   0  0  0  0  0  0  0  0  0  0  0  0
    1.0000   -1.0000    0.0000 C   0  0  0  0  0  0  0  0  0  0  0  0
    1.0000    0.0000    0.0000 S   0  0  0  0  0  0  0  0  0  0  0  0
    2.0000    0.0000    0.0000 O   0  0  0  0  0  0  0  0  0  0  0  0
    1.0000    1.0000    0.0000 O   0  0  0  0  0  0  0  0  0  0  0  0
    0.0000    0.0000    0.0000 C   0  0  0  0  0  0  0  0  0  0  0  0
   -0.5000    0.8660    0.0000 C   0  0  0  0  0  0  0  0  0  0  0  0
   -0.5000   -0.8660    0.0000 C   0  0  0  0  0  0  0  0  0  0  0  0
    4.4641   -1.0000    0.0000 N   0  0  0  0  0  0  0  0  0  0  0  0
    7.9282   -1.0000    0.0000 C   0  0  0  0  0  0  0  0  0  0  0  0
    7.9282    0.0000    0.0000 O   0  0  0  0  0  0  0  0  0  0  0  0
    7.0622    0.5000    0.0000 C   0  0  0  0  0  0  0  0  0  0  0  0
    7.0622    1.5000    0.0000 C   0  0  0  0  0  0  0  0  0  0  0  0
    6.1962    0.0000    0.0000 C   0  0  0  0  0  0  0  0  0  0  0  0
    8.7942   -1.5000    0.0000 C   0  0  0  0  0  0  0  0  0  0  0  0
    8.7942   -2.5000    0.0000 C   0  0  0  0  0  0  0  0  0  0  0  0
    9.6603   -3.0000    0.0000 C   0  0  0  0  0  0  0  0  0  0  0  0
   10.5263   -2.5000    0.0000 C   0  0  0  0  0  0  0  0  0  0  0  0
   11.3923   -3.0000    0.0000 C   0  0  0  0  0  0  0  0  0  0  0  0
   11.3923   -4.0000    0.0000 N   0  0  0  0  0  0  0  0  0  0  0  0
   10.5263   -4.5000    0.0000 C   0  0  0  0  0  0  0  0  0  0  0  0
    9.6603   -4.0000    0.0000 C   0  0  0  0  0  0  0  0  0  0  0  0
  1  2  1  0  0  0  0
  2 32  1  0  0  0  0
  2  3  2  0  0  0  0
  3  4  1  0  0  0  0
  4  5  1  0  0  0  0
  4 26  2  0  0  0  0
  5  6  1  0  0  0  0
  6 25  1  0  0  0  0
  6  7  2  0  0  0  0
  7  8  1  0  0  0  0
  8  9  2  0  0  0  0
  9 10  1  0  0  0  0
  9 11  1  0  0  0  0
 11 12  1  0  0  0  0
 11 25  2  0  0  0  0
 12 13  1  0  0  0  0
 13 18  1  0  0  0  0
 13 14  2  0  0  0  0
 14 15  1  0  0  0  0
 15 16  2  0  0  0  0
 16 17  1  0  0  0  0
 17 18  2  0  0  0  0
 18 19  1  0  0  0  0
 19 20  2  0  0  0  0
 19 21  2  0  0  0  0
 19 22  1  0  0  0  0
 22 23  1  0  0  0  0
 22 24  1  0  0  0  0
 26 27  1  0  0  0  0
 26 31  1  0  0  0  0
 27 28  1  0  0  0  0
 28 29  1  0  0  0  0
 28 30  1  0  0  0  0
 31 32  2  0  0  0  0
 32 33  1  0  0  0  0
 33 38  1  0  0  0  0
 33 34  1  0  0  0  0
 34 35  1  0  0  0  0
 35 36  1  0  0  0  0
 36 37  1  0  0  0  0
 37 38  1  0  0  0  0
M  END
$$$$

 OpenBabel10082008492D

 31 34  0  0  1  0  0  0  0  0999 V2000
    1.4483   -1.6730    0.0000 O   0  0  0  0  0  0  0  0  0  0  0  0
    1.7071   -0.7071    0.0000 C   0  0  0  0  0  0  0  0  0  0  0  0
    2.6730   -0.4483    0.0000 C   0  0  0  0  0  0  0  0  0  0  0  0
    2.9319    0.5176    0.0000 C   0  0  0  0  0  0  0  0  0  0  0  0
    3.8978    0.7765    0.0000 C   0  0  0  0  0  0  0  0  0  0  0  0
    4.6049    0.0694    0.0000 C   0  0  0  0  0  0  0  0  0  0  0  0
    5.5708    0.3282    0.0000 F   0  0  0  0  0  0  0  0  0  0  0  0
    4.3461   -0.8966    0.0000 C   0  0  0  0  0  0  0  0  0  0  0  0
    5.0532   -1.6037    0.0000 F   0  0  0  0  0  0  0  0  0  0  0  0
    3.3801   -1.1554    0.0000 C   0  0  0  0  0  0  0  0  0  0  0  0
    3.1213   -2.1213    0.0000 N   0  0  0  0  0  0  0  0  0  0  0  0
    3.8284   -2.8284    0.0000 C   0  0  0  0  0  0  0  0  0  0  0  0
    4.7944   -2.5696    0.0000 C   0  0  0  0  0  0  0  0  0  0  0  0
    5.5015   -3.2767    0.0000 C   0  0  0  0  0  0  0  0  0  0  0  0
    5.2426   -4.2426    0.0000 C   0  0  0  0  0  0  0  0  0  0  0  0
    5.9497   -4.9497    0.0000 I   0  0  0  0  0  0  0  0  0  0  0  0
    4.2767   -4.5015    0.0000 C   0  0  0  0  0  0  0  0  0  0  0  0
    3.5696   -3.7944    0.0000 C   0  0  0  0  0  0  0  0  0  0  0  0
    2.6037   -4.0532    0.0000 F   0  0  0  0  0  0  0  0  0  0  0  0
    1.0000   -0.0000    0.0000 N   0  0  0  0  0  0  0  0  0  0  0  0
    0.0000    0.0000    0.0000 C   0  0  0  0  0  0  0  0  0  0  0  0
   -0.0000    1.0000    0.0000 C   0  0  0  0  0  0  0  0  0  0  0  0
   -0.2588    1.9659    0.0000 O   0  0  0  0  0  0  0  0  0  0  0  0
   -0.9659    1.2588    0.0000 C   0  0  2  0  0  0  0  0  0  0  0  0
   -1.0965    2.2503    0.0000 H   0  0  0  0  0  0  0  0  0  0  0  0
   -1.8320    1.7588    0.0000 C   0  0  0  0  0  0  0  0  0  0  0  0
   -2.6980    1.2588    0.0000 C   0  0  0  0  0  0  0  0  0  0  0  0
   -2.6980    0.2588    0.0000 C   0  0  0  0  0  0  0  0  0  0  0  0
   -1.8320   -0.2412    0.0000 C   0  0  0  0  0  0  0  0  0  0  0  0
   -0.9659    0.2588    0.0000 N   0  0  0  0  0  0  0  0  0  0  0  0
    1.0000    1.0000    0.0000 C   0  0  0  0  0  0  0  0  0  0  0  0
  1  2  2  0  0  0  0
  2  3  1  0  0  0  0
  2 20  1  0  0  0  0
  3 10  1  0  0  0  0
  3  4  2  0  0  0  0
  4  5  1  0  0  0  0
  5  6  2  0  0  0  0
  6  7  1  0  0  0  0
  6  8  1  0  0  0  0
  8  9  1  0  0  0  0
  8 10  2  0  0  0  0
 10 11  1  0  0  0  0
 11 12  1  0  0  0  0
 12 18  1  0  0  0  0
 12 13  2  0  0  0  0
 13 14  1  0  0  0  0
 14 15  2  0  0  0  0
 15 16  1  0  0  0  0
 15 17  1  0  0  0  0
 17 18  2  0  0  0  0
 18 19  1  0  0  0  0
 20 31  1  0  0  0  0
 20 21  1  0  0  0  0
 21 22  1  0  0  0  0
 22 23  1  0  0  0  0
 22 24  1  0  0  0  0
 22 31  1  0  0  0  0
 24 25  1  6  0  0  0
 24 30  1  0  0  0  0
 24 26  1  0  0  0  0
 26 27  1  0  0  0  0
 27 28  1  0  0  0  0
 28 29  1  0  0  0  0
 29 30  1  0  0  0  0
M  END
$$$$

 OpenBabel10082008492D

 13 13  0  0  1  0  0  0  0  0999 V2000
    0.8090    1.5878    0.0000 C   0  0  0  0  0  0  0  0  0  0  0  0
    0.8090    0.5878    0.0000 C   0  0  0  0  0  0  0  0  0  0  0  0
    1.6180    0.0000    0.0000 N   0  0  0  0  0  0  0  0  0  0  0  0
    1.3090   -0.9511    0.0000 C   0  0  0  0  0  0  0  0  0  0  0  0
    0.3090   -0.9511    0.0000 C   0  0  0  0  0  0  0  0  0  0  0  0
   -0.2788   -1.7601    0.0000 N   0  3  0  0  0  0  0  0  0  0  0  0
   -1.2733   -1.6555    0.0000 O   0  0  0  0  0  0  0  0  0  0  0  0
    0.1280   -2.6736    0.0000 O   0  5  0  0  0  0  0  0  0  0  0  0
    0.0000   -0.0000    0.0000 N   0  0  0  0  0  0  0  0  0  0  0  0
   -0.9511    0.3090    0.0000 C   0  0  0  0  0  0  0  0  0  0  0  0
   -1.1590    1.2872    0.0000 C   0  0  3  0  0  0  0  0  0  0  0  0
   -0.4158    1.9563    0.0000 C   0  0  0  0  0  0  0  0  0  0  0  0
   -2.1100    1.5962    0.0000 O   0  0  0  0  0  0  0  0  0  0  0  0
  1  2  1  0  0  0  0
  2  9  1  0  0  0  0
  2  3  2  0  0  0  0
  3  4  1  0  0  0  0
  4  5  2  0  0  0  0
  5  6  1  0  0  0  0
  5  9  1  0  0  0  0
  6  7  2  0  0  0  0
  6  8  1  0  0  0  0
  9 10  1  0  0  0  0
 10 11  1  0  0  0  0
 11 12  1  0  0  0  0
 11 13  1  0  0  0  0
M  CHG  2   6   1   8  -1
M  END
$$$$

 OpenBabel10082008492D

 27 29  0  0  1  0  0  0  0  0999 V2000
   -0.8372    3.3833    0.0000 C   0  0  0  0  0  0  0  0  0  0  0  0
    0.0000    2.9000    0.0000 O   0  0  0  0  0  0  0  0  0  0  0  0
    0.0000    1.9333    0.0000 C   0  0  0  0  0  0  0  0  0  0  0  0
   -0.8372    1.4500    0.0000 O   0  0  0  0  0  0  0  0  0  0  0  0
    1.6743    0.9667    0.0000 C   0  0  0  0  0  0  0  0  0  0  0  0
    2.5115    1.4500    0.0000 C   0  0  0  0  0  0  0  0  0  0  0  0
    2.5115    2.4167    0.0000 C   0  0  0  0  0  0  0  0  0  0  0  0
    3.3486    0.9667    0.0000 N   0  0  0  0  0  0  0  0  0  0  0  0
    3.3486   -0.0000    0.0000 C   0  0  0  0  0  0  0  0  0  0  0  0
    4.1858   -0.4833    0.0000 C   0  0  0  0  0  0  0  0  0  0  0  0
    2.5115   -0.4833    0.0000 C   0  0  0  0  0  0  0  0  0  0  0  0
    2.5115   -1.4500    0.0000 C   0  0  0  0  0  0  0  0  0  0  0  0
    1.6743   -1.9333    0.0000 O   0  0  0  0  0  0  0  0  0  0  0  0
    3.3486   -1.9333    0.0000 O   0  0  0  0  0  0  0  0  0  0  0  0
    3.3486   -2.9000    0.0000 C   0  0  0  0  0  0  0  0  0  0  0  0
    2.5115   -3.3833    0.0000 C   0  0  0  0  0  0  0  0  0  0  0  0
    4.1858   -3.3833    0.0000 C   0  0  0  0  0  0  0  0  0  0  0  0
    1.6743   -0.0000    0.0000 C   0  0  3  0  0  0  0  0  0  0  0  0
    0.8372   -0.4833    0.0000 C   0  0  0  0  0  0  0  0  0  0  0  0
    0.8372   -1.4500    0.0000 C   0  0  0  0  0  0  0  0  0  0  0  0
   -0.0000   -1.9333    0.0000 C   0  0  0  0  0  0  0  0  0  0  0  0
   -0.8372   -1.4500    0.0000 C   0  0  0  0  0  0  0  0  0  0  0  0
   -0.8372   -0.4833    0.0000 C   0  0  0  0  0  0  0  0  0  0  0  0
   -1.5555    0.1635    0.0000 N   0  0  0  0  0  0  0  0  0  0  0  0
   -1.1624    1.0466    0.0000 O   0  0  0  0  0  0  0  0  0  0  0  0
   -0.2010    0.9455    0.0000 N   0  0  0  0  0  0  0  0  0  0  0  0
    0.0000    0.0000    0.0000 C   0  0  0  0  0  0  0  0  0  0  0  0
  1  2  1  0  0  0  0
  2  3  1  0  0  0  0
  3  4  2  0  0  0  0
  3  5  1  0  0  0  0
  5 18  1  0  0  0  0
  5  6  2  0  0  0  0
  6  7  1  0  0  0  0
  6  8  1  0  0  0  0
  8  9  1  0  0  0  0
  9 10  1  0  0  0  0
  9 11  2  0  0  0  0
 11 12  1  0  0  0  0
 11 18  1  0  0  0  0
 12 13  2  0  0  0  0
 12 14  1  0  0  0  0
 14 15  1  0  0  0  0
 15 16  1  0  0  0  0
 15 17  1  0  0  0  0
 18 19  1  0  0  0  0
 19 27  1  0  0  0  0
 19 20  2  0  0  0  0
 20 21  1  0  0  0  0
 21 22  2  0  0  0  0
 22 23  1  0  0  0  0
 23 27  1  0  0  0  0
 23 24  2  0  0  0  0
 24 25  1  0  0  0  0
 25 26  1  0  0  0  0
 26 27  2  0  0  0  0
M  END
$$$$

 OpenBabel10082008492D

 33 37  0  0  0  0  0  0  0  0999 V2000
   -0.8432   -1.4605    0.0000 C   0  0  0  0  0  0  0  0  0  0  0  0
   -1.6865   -0.9737    0.0000 C   0  0  0  0  0  0  0  0  0  0  0  0
   -2.5297   -1.4605    0.0000 C   0  0  0  0  0  0  0  0  0  0  0  0
   -3.3729   -0.9737    0.0000 C   0  0  0  0  0  0  0  0  0  0  0  0
   -3.3729   -0.0000    0.0000 C   0  0  0  0  0  0  0  0  0  0  0  0
   -4.2162    0.4868    0.0000 N   0  0  0  0  0  0  0  0  0  0  0  0
   -4.2162    1.4605    0.0000 C   0  0  0  0  0  0  0  0  0  0  0  0
   -3.3729    1.9474    0.0000 O   0  0  0  0  0  0  0  0  0  0  0  0
   -5.9026    2.4342    0.0000 C   0  0  0  0  0  0  0  0  0  0  0  0
   -5.0594    2.9211    0.0000 C   0  0  0  0  0  0  0  0  0  0  0  0
   -5.0594    3.8947    0.0000 C   0  0  0  0  0  0  0  0  0  0  0  0
   -4.2162    4.3816    0.0000 C   0  0  0  0  0  0  0  0  0  0  0  0
   -3.3729    3.8947    0.0000 C   0  0  0  0  0  0  0  0  0  0  0  0
   -3.3729    2.9211    0.0000 C   0  0  0  0  0  0  0  0  0  0  0  0
   -4.2162    2.4342    0.0000 C   0  0  0  0  0  0  0  0  0  0  0  0
   -2.4469    2.6202    0.0000 O   0  0  0  0  0  0  0  0  0  0  0  0
   -1.8746    3.4079    0.0000 C   0  0  0  0  0  0  0  0  0  0  0  0
   -1.0314    2.9211    0.0000 F   0  0  0  0  0  0  0  0  0  0  0  0
   -1.0314    3.8947    0.0000 F   0  0  0  0  0  0  0  0  0  0  0  0
   -2.4469    4.1956    0.0000 O   0  0  0  0  0  0  0  0  0  0  0  0
   -6.7459    1.9474    0.0000 C   0  0  0  0  0  0  0  0  0  0  0  0
   -6.7459    2.9211    0.0000 C   0  0  0  0  0  0  0  0  0  0  0  0
   -2.5297    0.4868    0.0000 N   0  0  0  0  0  0  0  0  0  0  0  0
   -1.6865   -0.0000    0.0000 C   0  0  0  0  0  0  0  0  0  0  0  0
   -0.8432    0.4868    0.0000 C   0  0  0  0  0  0  0  0  0  0  0  0
   -0.8432    1.4605    0.0000 C   0  0  0  0  0  0  0  0  0  0  0  0
   -0.0000    1.9474    0.0000 C   0  0  0  0  0  0  0  0  0  0  0  0
    0.8432    1.4605    0.0000 C   0  0  0  0  0  0  0  0  0  0  0  0
    0.8432    0.4868    0.0000 C   0  0  0  0  0  0  0  0  0  0  0  0
    1.6865    0.0000    0.0000 C   0  0  0  0  0  0  0  0  0  0  0  0
    1.6865   -0.9737    0.0000 O   0  0  0  0  0  0  0  0  0  0  0  0
    2.5297    0.4868    0.0000 O   0  0  0  0  0  0  0  0  0  0  0  0
    0.0000    0.0000    0.0000 C   0  0  0  0  0  0  0  0  0  0  0  0
  1  2  1  0  0  0  0
  2 24  1  0  0  0  0
  2  3  2  0  0  0  0
  3  4  1  0  0  0  0
  4  5  2  0  0  0  0
  5  6  1  0  0  0  0
  5 23  1  0  0  0  0
  6  7  1  0  0  0  0
  7  8  2  0  0  0  0
  7  9  1  0  0  0  0
  9 22  1  0  0  0  0
  9 10  1  0  0  0  0
  9 21  1  0  0  0  0
 10 15  1  0  0  0  0
 10 11  2  0  0  0  0
 11 12  1  0  0  0  0
 12 13  2  0  0  0  0
 13 20  1  0  0  0  0
 13 14  1  0  0  0  0
 14 15  2  0  0  0  0
 14 16  1  0  0  0  0
 16 17  1  0  0  0  0
 17 18  1  0  0  0  0
 17 19  1  0  0  0  0
 17 20  1  0  0  0  0
 21 22  1  0  0  0  0
 23 24  2  0  0  0  0
 24 25  1  0  0  0  0
 25 33  1  0  0  0  0
 25 26  2  0  0  0  0
 26 27  1  0  0  0  0
 27 28  2  0  0  0  0
 28 29  1  0  0  0  0
 29 30  1  0  0  0  0
 29 33  2  0  0  0  0
 30 31  2  0  0  0  0
 30 32  1  0  0  0  0
M  END
$$$$

 OpenBabel10082008492D

 20 22  0  0  1  0  0  0  0  0999 V2000
    6.0697    3.4181    0.0000 C   0  0  0  0  0  0  0  0  0  0  0  0
    5.1038    3.6769    0.0000 C   0  0  0  0  0  0  0  0  0  0  0  0
    4.3967    2.9698    0.0000 C   0  0  0  0  0  0  0  0  0  0  0  0
    3.4308    3.2286    0.0000 O   0  0  0  0  0  0  0  0  0  0  0  0
    4.6555    2.0039    0.0000 N   0  0  0  0  0  0  0  0  0  0  0  0
    3.9484    1.2968    0.0000 C   0  0  0  0  0  0  0  0  0  0  0  0
    4.2072    0.3309    0.0000 C   0  0  2  0  0  0  0  0  0  0  0  0
    5.1106    0.7598    0.0000 H   0  0  0  0  0  0  0  0  0  0  0  0
    4.2072   -0.6691    0.0000 C   0  0  0  0  0  0  0  0  0  0  0  0
    3.3412   -0.1691    0.0000 C   0  0  1  0  0  0  0  0  0  0  0  0
    2.4752    0.3309    0.0000 H   0  0  0  0  0  0  0  0  0  0  0  0
    2.4752   -0.6691    0.0000 C   0  0  0  0  0  0  0  0  0  0  0  0
    2.4752   -1.6691    0.0000 C   0  0  0  0  0  0  0  0  0  0  0  0
    1.6092   -2.1691    0.0000 C   0  0  0  0  0  0  0  0  0  0  0  0
    0.7431   -1.6691    0.0000 C   0  0  0  0  0  0  0  0  0  0  0  0
    0.7431   -0.6691    0.0000 C   0  0  0  0  0  0  0  0  0  0  0  0
    1.6092   -0.1691    0.0000 C   0  0  0  0  0  0  0  0  0  0  0  0
    1.4013    0.8090    0.0000 C   0  0  0  0  0  0  0  0  0  0  0  0
    0.4067    0.9135    0.0000 C   0  0  0  0  0  0  0  0  0  0  0  0
   -0.0000   -0.0000    0.0000 O   0  0  0  0  0  0  0  0  0  0  0  0
  1  2  1  0  0  0  0
  2  3  1  0  0  0  0
  3  4  2  0  0  0  0
  3  5  1  0  0  0  0
  5  6  1  0  0  0  0
  6  7  1  0  0  0  0
  7  8  1  1  0  0  0
  7 10  1  0  0  0  0
  7  9  1  0  0  0  0
  9 10  1  0  0  0  0
 10 11  1  6  0  0  0
 10 12  1  0  0  0  0
 12 17  1  0  0  0  0
 12 13  2  0  0  0  0
 13 14  1  0  0  0  0
 14 15  2  0  0  0  0
 15 16  1  0  0  0  0
 16 20  1  0  0  0  0
 16 17  2  0  0  0  0
 17 18  1  0  0  0  0
 18 19  1  0  0  0  0
 19 20  1  0  0  0  0
M  END
$$$$

 OpenBabel10082008492D

 41 43  0  0  1  0  0  0  0  0999 V2000
    3.9902   -6.2049    0.0000 C   0  0  0  0  0  0  0  0  0  0  0  0
    3.1706   -6.7372    0.0000 C   0  0  0  0  0  0  0  0  0  0  0  0
    4.0413   -7.1809    0.0000 C   0  0  0  0  0  0  0  0  0  0  0  0
    2.6383   -5.9176    0.0000 C   0  0  0  0  0  0  0  0  0  0  0  0
    2.7269   -7.6080    0.0000 N   0  0  0  0  0  0  0  0  0  0  0  0
    1.7509   -7.6591    0.0000 C   0  0  0  0  0  0  0  0  0  0  0  0
    1.3073   -8.5299    0.0000 O   0  0  0  0  0  0  0  0  0  0  0  0
    1.2187   -6.8395    0.0000 N   0  0  0  0  0  0  0  0  0  0  0  0
    0.2428   -6.8906    0.0000 C   0  0  2  0  0  0  0  0  0  0  0  0
    0.2939   -7.8666    0.0000 H   0  0  0  0  0  0  0  0  0  0  0  0
    0.1916   -5.9147    0.0000 C   0  0  0  0  0  0  0  0  0  0  0  0
    1.0112   -5.3825    0.0000 O   0  0  0  0  0  0  0  0  0  0  0  0
   -1.5499   -5.0274    0.0000 N   0  0  0  0  0  0  0  0  0  0  0  0
   -2.4207   -5.4710    0.0000 C   0  0  0  0  0  0  0  0  0  0  0  0
   -3.1117   -4.7800    0.0000 C   0  0  1  0  0  0  0  0  0  0  0  0
   -3.6163   -5.6170    0.0000 H   0  0  0  0  0  0  0  0  0  0  0  0
   -2.6680   -3.9092    0.0000 C   0  0  1  0  0  0  0  0  0  0  0  0
   -2.2875   -3.0091    0.0000 H   0  0  0  0  0  0  0  0  0  0  0  0
   -1.7028   -4.0621    0.0000 C   0  0  1  0  0  0  0  0  0  0  0  0
   -1.4498   -3.1182    0.0000 H   0  0  0  0  0  0  0  0  0  0  0  0
   -0.7588   -3.8092    0.0000 C   0  0  0  0  0  0  0  0  0  0  0  0
   -0.0678   -4.5002    0.0000 O   0  0  0  0  0  0  0  0  0  0  0  0
   -0.5059   -2.8652    0.0000 N   0  0  0  0  0  0  0  0  0  0  0  0
    0.4381   -2.6123    0.0000 C   0  0  3  0  0  0  0  0  0  0  0  0
    0.6910   -1.6683    0.0000 C   0  0  0  0  0  0  0  0  0  0  0  0
    0.0000   -0.9773    0.0000 C   0  0  0  0  0  0  0  0  0  0  0  0
    0.0000    0.0000    0.0000 C   0  0  0  0  0  0  0  0  0  0  0  0
   -0.9773   -0.0000    0.0000 C   0  0  0  0  0  0  0  0  0  0  0  0
   -0.9773   -0.9773    0.0000 C   0  0  0  0  0  0  0  0  0  0  0  0
    1.1291   -3.3033    0.0000 C   0  0  0  0  0  0  0  0  0  0  0  0
    0.8762   -4.2473    0.0000 O   0  0  0  0  0  0  0  0  0  0  0  0
    2.0731   -3.0504    0.0000 C   0  0  0  0  0  0  0  0  0  0  0  0
    2.7641   -3.7414    0.0000 N   0  0  0  0  0  0  0  0  0  0  0  0
    2.3260   -2.1064    0.0000 O   0  0  0  0  0  0  0  0  0  0  0  0
   -3.6440   -3.9604    0.0000 C   0  0  0  0  0  0  0  0  0  0  0  0
   -4.6199   -4.0115    0.0000 C   0  0  0  0  0  0  0  0  0  0  0  0
   -4.1762   -3.1408    0.0000 C   0  0  0  0  0  0  0  0  0  0  0  0
   -0.7332   -6.9418    0.0000 C   0  0  0  0  0  0  0  0  0  0  0  0
   -1.6039   -6.4981    0.0000 C   0  0  0  0  0  0  0  0  0  0  0  0
   -0.7843   -5.9659    0.0000 C   0  0  0  0  0  0  0  0  0  0  0  0
   -1.1769   -7.8126    0.0000 C   0  0  0  0  0  0  0  0  0  0  0  0
  1  2  1  0  0  0  0
  2  3  1  0  0  0  0
  2  4  1  0  0  0  0
  2  5  1  0  0  0  0
  5  6  1  0  0  0  0
  6  7  2  0  0  0  0
  6  8  1  0  0  0  0
  8  9  1  0  0  0  0
  9 10  1  6  0  0  0
  9 11  1  0  0  0  0
  9 38  1  0  0  0  0
 11 12  2  0  0  0  0
 11 13  1  0  0  0  0
 13 19  1  0  0  0  0
 13 14  1  0  0  0  0
 14 15  1  0  0  0  0
 15 16  1  1  0  0  0
 15 35  1  0  0  0  0
 15 17  1  0  0  0  0
 17 18  1  1  0  0  0
 17 19  1  0  0  0  0
 17 35  1  0  0  0  0
 19 20  1  6  0  0  0
 19 21  1  0  0  0  0
 21 22  2  0  0  0  0
 21 23  1  0  0  0  0
 23 24  1  0  0  0  0
 24 25  1  0  0  0  0
 24 30  1  0  0  0  0
 25 26  1  0  0  0  0
 26 29  1  0  0  0  0
 26 27  1  0  0  0  0
 27 28  1  0  0  0  0
 28 29  1  0  0  0  0
 30 31  2  0  0  0  0
 30 32  1  0  0  0  0
 32 33  1  0  0  0  0
 32 34  2  0  0  0  0
 35 36  1  0  0  0  0
 35 37  1  0  0  0  0
 38 39  1  0  0  0  0
 38 40  1  0  0  0  0
 38 41  1  0  0  0  0
M  END
$$$$

 OpenBabel10082008492D

 30 33  0  0  0  0  0  0  0  0999 V2000
   -2.4495   -3.4495    0.0000 N   0  0  0  0  0  0  0  0  0  0  0  0
   -1.7424   -4.1566    0.0000 C   0  0  0  0  0  0  0  0  0  0  0  0
   -0.7765   -3.8978    0.0000 N   0  0  0  0  0  0  0  0  0  0  0  0
   -0.0694   -4.6049    0.0000 C   0  0  0  0  0  0  0  0  0  0  0  0
    0.8966   -4.3461    0.0000 N   0  0  0  0  0  0  0  0  0  0  0  0
    1.6037   -5.0532    0.0000 C   0  0  0  0  0  0  0  0  0  0  0  0
    2.5696   -4.7944    0.0000 C   0  0  0  0  0  0  0  0  0  0  0  0
    3.2767   -5.5015    0.0000 C   0  0  0  0  0  0  0  0  0  0  0  0
    4.2426   -5.2426    0.0000 O   0  0  0  0  0  0  0  0  0  0  0  0
    3.0179   -6.4674    0.0000 O   0  0  0  0  0  0  0  0  0  0  0  0
    2.8284   -3.8284    0.0000 C   0  0  0  0  0  0  0  0  0  0  0  0
    3.7944   -3.5696    0.0000 O   0  0  0  0  0  0  0  0  0  0  0  0
    2.1213   -3.1213    0.0000 C   0  0  0  0  0  0  0  0  0  0  0  0
    2.3801   -2.1554    0.0000 C   0  0  0  0  0  0  0  0  0  0  0  0
    1.6730   -1.4483    0.0000 C   0  0  0  0  0  0  0  0  0  0  0  0
    1.9319   -0.4824    0.0000 F   0  0  0  0  0  0  0  0  0  0  0  0
    0.7071   -1.7071    0.0000 C   0  0  0  0  0  0  0  0  0  0  0  0
    0.0000   -1.0000    0.0000 N   0  0  0  0  0  0  0  0  0  0  0  0
   -0.0000   -0.0000    0.0000 C   0  0  0  0  0  0  0  0  0  0  0  0
   -1.0000   -0.0000    0.0000 C   0  0  0  0  0  0  0  0  0  0  0  0
   -1.7071    0.7071    0.0000 O   0  0  0  0  0  0  0  0  0  0  0  0
   -1.0000   -1.0000    0.0000 C   0  0  0  0  0  0  0  0  0  0  0  0
    0.4483   -2.6730    0.0000 C   0  0  0  0  0  0  0  0  0  0  0  0
   -0.5176   -2.9319    0.0000 Cl  0  0  0  0  0  0  0  0  0  0  0  0
    1.1554   -3.3801    0.0000 C   0  0  0  0  0  0  0  0  0  0  0  0
   -0.3282   -5.5708    0.0000 C   0  0  0  0  0  0  0  0  0  0  0  0
    0.3789   -6.2779    0.0000 F   0  0  0  0  0  0  0  0  0  0  0  0
   -1.2941   -5.8296    0.0000 C   0  0  0  0  0  0  0  0  0  0  0  0
   -2.0012   -5.1225    0.0000 C   0  0  0  0  0  0  0  0  0  0  0  0
   -2.9671   -5.3813    0.0000 F   0  0  0  0  0  0  0  0  0  0  0  0
  1  2  1  0  0  0  0
  2 29  1  0  0  0  0
  2  3  2  0  0  0  0
  3  4  1  0  0  0  0
  4  5  1  0  0  0  0
  4 26  2  0  0  0  0
  5 25  1  0  0  0  0
  5  6  1  0  0  0  0
  6  7  2  0  0  0  0
  7  8  1  0  0  0  0
  7 11  1  0  0  0  0
  8  9  2  0  0  0  0
  8 10  1  0  0  0  0
 11 12  2  0  0  0  0
 11 13  1  0  0  0  0
 13 25  1  0  0  0  0
 13 14  2  0  0  0  0
 14 15  1  0  0  0  0
 15 16  1  0  0  0  0
 15 17  2  0  0  0  0
 17 18  1  0  0  0  0
 17 23  1  0  0  0  0
 18 22  1  0  0  0  0
 18 19  1  0  0  0  0
 19 20  1  0  0  0  0
 20 21  1  0  0  0  0
 20 22  1  0  0  0  0
 23 24  1  0  0  0  0
 23 25  2  0  0  0  0
 26 27  1  0  0  0  0
 26 28  1  0  0  0  0
 28 29  2  0  0  0  0
 29 30  1  0  0  0  0
M  END
$$$$

 OpenBabel10082008492D

 24 26  0  0  0  0  0  0  0  0999 V2000
   -3.4641   -3.0000    0.0000 C   0  0  0  0  0  0  0  0  0  0  0  0
   -2.5981   -3.5000    0.0000 N   0  0  0  0  0  0  0  0  0  0  0  0
   -2.5981   -4.5000    0.0000 C   0  0  0  0  0  0  0  0  0  0  0  0
   -1.7321   -3.0000    0.0000 C   0  0  0  0  0  0  0  0  0  0  0  0
   -1.7321   -2.0000    0.0000 C   0  0  0  0  0  0  0  0  0  0  0  0
   -0.8660   -1.5000    0.0000 C   0  0  0  0  0  0  0  0  0  0  0  0
   -0.8660   -0.5000    0.0000 N   0  0  0  0  0  0  0  0  0  0  0  0
   -1.7321   -0.0000    0.0000 C   0  0  0  0  0  0  0  0  0  0  0  0
   -2.5981   -0.5000    0.0000 C   0  0  0  0  0  0  0  0  0  0  0  0
   -3.4641   -0.0000    0.0000 C   0  0  0  0  0  0  0  0  0  0  0  0
   -3.4641    1.0000    0.0000 C   0  0  0  0  0  0  0  0  0  0  0  0
   -2.5981    1.5000    0.0000 C   0  0  0  0  0  0  0  0  0  0  0  0
   -1.7321    1.0000    0.0000 C   0  0  0  0  0  0  0  0  0  0  0  0
   -0.8660    1.5000    0.0000 S   0  0  0  0  0  0  0  0  0  0  0  0
   -0.0000    1.0000    0.0000 C   0  0  0  0  0  0  0  0  0  0  0  0
    0.8660    1.5000    0.0000 C   0  0  0  0  0  0  0  0  0  0  0  0
    1.7321    1.0000    0.0000 C   0  0  0  0  0  0  0  0  0  0  0  0
    1.7321    0.0000    0.0000 C   0  0  0  0  0  0  0  0  0  0  0  0
    2.5981   -0.5000    0.0000 C   0  0  0  0  0  0  0  0  0  0  0  0
    3.5981   -0.5000    0.0000 F   0  0  0  0  0  0  0  0  0  0  0  0
    3.0981    0.3660    0.0000 F   0  0  0  0  0  0  0  0  0  0  0  0
    2.5981   -1.5000    0.0000 F   0  0  0  0  0  0  0  0  0  0  0  0
    0.8660   -0.5000    0.0000 C   0  0  0  0  0  0  0  0  0  0  0  0
    0.0000   -0.0000    0.0000 C   0  0  0  0  0  0  0  0  0  0  0  0
  1  2  1  0  0  0  0
  2  3  1  0  0  0  0
  2  4  1  0  0  0  0
  4  5  1  0  0  0  0
  5  6  1  0  0  0  0
  6  7  1  0  0  0  0
  7 24  1  0  0  0  0
  7  8  1  0  0  0  0
  8 13  1  0  0  0  0
  8  9  2  0  0  0  0
  9 10  1  0  0  0  0
 10 11  2  0  0  0  0
 11 12  1  0  0  0  0
 12 13  2  0  0  0  0
 13 14  1  0  0  0  0
 14 15  1  0  0  0  0
 15 24  1  0  0  0  0
 15 16  2  0  0  0  0
 16 17  1  0  0  0  0
 17 18  2  0  0  0  0
 18 19  1  0  0  0  0
 18 23  1  0  0  0  0
 19 20  1  0  0  0  0
 19 21  1  0  0  0  0
 19 22  1  0  0  0  0
 23 24  2  0  0  0  0
M  END
$$$$

 OpenBabel10082008492D

 37 39  0  0  1  0  0  0  0  0999 V2000
   -2.5683    3.9475    0.0000 C   0  0  0  0  0  0  0  0  0  0  0  0
   -1.5901    3.7396    0.0000 O   0  0  0  0  0  0  0  0  0  0  0  0
   -0.9210    4.4827    0.0000 C   0  0  0  0  0  0  0  0  0  0  0  0
   -1.2300    5.4338    0.0000 O   0  0  0  0  0  0  0  0  0  0  0  0
    0.0572    4.2748    0.0000 N   0  0  0  0  0  0  0  0  0  0  0  0
    0.7263    5.0180    0.0000 C   0  0  1  0  0  0  0  0  0  0  0  0
   -0.0169    5.6871    0.0000 H   0  0  0  0  0  0  0  0  0  0  0  0
    0.9342    5.9961    0.0000 C   0  0  0  0  0  0  0  0  0  0  0  0
    1.7044    4.8101    0.0000 C   0  0  0  0  0  0  0  0  0  0  0  0
    2.0135    3.8590    0.0000 N   0  0  0  0  0  0  0  0  0  0  0  0
    2.9916    3.6511    0.0000 C   0  0  0  0  0  0  0  0  0  0  0  0
    3.6607    4.3942    0.0000 N   0  0  0  0  0  0  0  0  0  0  0  0
    4.6389    4.1863    0.0000 C   0  0  0  0  0  0  0  0  0  0  0  0
    4.9479    3.2353    0.0000 C   0  0  0  0  0  0  0  0  0  0  0  0
    4.2788    2.4921    0.0000 C   0  0  0  0  0  0  0  0  0  0  0  0
    4.5878    1.5411    0.0000 C   0  0  0  0  0  0  0  0  0  0  0  0
    5.5388    1.2321    0.0000 C   0  0  0  0  0  0  0  0  0  0  0  0
    5.5388    0.2321    0.0000 N   0  0  0  0  0  0  0  0  0  0  0  0
    6.3479   -0.3557    0.0000 C   0  0  0  0  0  0  0  0  0  0  0  0
    6.2433   -1.3503    0.0000 C   0  0  0  0  0  0  0  0  0  0  0  0
    7.2614    0.0510    0.0000 C   0  0  0  0  0  0  0  0  0  0  0  0
    4.5878   -0.0770    0.0000 N   0  0  0  0  0  0  0  0  0  0  0  0
    4.0000    0.7321    0.0000 C   0  0  0  0  0  0  0  0  0  0  0  0
    3.0000    0.7321    0.0000 C   0  0  0  0  0  0  0  0  0  0  0  0
    2.5000    1.5981    0.0000 C   0  0  0  0  0  0  0  0  0  0  0  0
    1.5000    1.5981    0.0000 C   0  0  0  0  0  0  0  0  0  0  0  0
    1.0000    2.4641    0.0000 Cl  0  0  0  0  0  0  0  0  0  0  0  0
    1.0000    0.7321    0.0000 C   0  0  0  0  0  0  0  0  0  0  0  0
    1.5000   -0.1340    0.0000 C   0  0  0  0  0  0  0  0  0  0  0  0
    1.0000   -1.0000    0.0000 N   0  0  0  0  0  0  0  0  0  0  0  0
   -0.0000   -1.0000    0.0000 S   0  0  0  0  0  0  0  0  0  0  0  0
   -0.0000   -2.0000    0.0000 C   0  0  0  0  0  0  0  0  0  0  0  0
   -1.0000   -1.0000    0.0000 O   0  0  0  0  0  0  0  0  0  0  0  0
    0.0000   -0.0000    0.0000 O   0  0  0  0  0  0  0  0  0  0  0  0
    2.5000   -0.1340    0.0000 C   0  0  0  0  0  0  0  0  0  0  0  0
    3.0000   -1.0000    0.0000 F   0  0  0  0  0  0  0  0  0  0  0  0
    3.3006    2.7000    0.0000 N   0  0  0  0  0  0  0  0  0  0  0  0
  1  2  1  0  0  0  0
  2  3  1  0  0  0  0
  3  4  2  0  0  0  0
  3  5  1  0  0  0  0
  5  6  1  0  0  0  0
  6  7  1  6  0  0  0
  6  8  1  0  0  0  0
  6  9  1  0  0  0  0
  9 10  1  0  0  0  0
 10 11  1  0  0  0  0
 11 37  1  0  0  0  0
 11 12  2  0  0  0  0
 12 13  1  0  0  0  0
 13 14  2  0  0  0  0
 14 15  1  0  0  0  0
 15 16  1  0  0  0  0
 15 37  2  0  0  0  0
 16 23  1  0  0  0  0
 16 17  2  0  0  0  0
 17 18  1  0  0  0  0
 18 19  1  0  0  0  0
 18 22  1  0  0  0  0
 19 20  1  0  0  0  0
 19 21  1  0  0  0  0
 22 23  2  0  0  0  0
 23 24  1  0  0  0  0
 24 35  1  0  0  0  0
 24 25  2  0  0  0  0
 25 26  1  0  0  0  0
 26 27  1  0  0  0  0
 26 28  2  0  0  0  0
 28 29  1  0  0  0  0
 29 30  1  0  0  0  0
 29 35  2  0  0  0  0
 30 31  1  0  0  0  0
 31 32  1  0  0  0  0
 31 33  2  0  0  0  0
 31 34  2  0  0  0  0
 35 36  1  0  0  0  0
M  END
$$$$

 OpenBabel10082008492D

 26 28  0  0  1  0  0  0  0  0999 V2000
   -2.2321    2.8660    0.0000 C   0  0  0  0  0  0  0  0  0  0  0  0
   -1.7321    2.0000    0.0000 C   0  0  1  0  0  0  0  0  0  0  0  0
   -1.2321    2.8660    0.0000 H   0  0  0  0  0  0  0  0  0  0  0  0
   -2.5981    1.5000    0.0000 C   0  0  0  0  0  0  0  0  0  0  0  0
   -2.5981    0.5000    0.0000 N   0  0  0  0  0  0  0  0  0  0  0  0
   -3.4641    0.0000    0.0000 C   0  0  0  0  0  0  0  0  0  0  0  0
   -4.3301    0.5000    0.0000 N   0  0  0  0  0  0  0  0  0  0  0  0
   -4.3301    1.5000    0.0000 C   0  0  0  0  0  0  0  0  0  0  0  0
   -3.4641    2.0000    0.0000 C   0  0  0  0  0  0  0  0  0  0  0  0
   -3.4641    3.0000    0.0000 F   0  0  0  0  0  0  0  0  0  0  0  0
   -0.8660    1.5000    0.0000 C   0  0  2  0  0  0  0  0  0  0  0  0
   -1.3660    0.6340    0.0000 O   0  0  0  0  0  0  0  0  0  0  0  0
   -0.3660    2.3660    0.0000 C   0  0  0  0  0  0  0  0  0  0  0  0
   -0.8660    3.2321    0.0000 N   0  0  0  0  0  0  0  0  0  0  0  0
   -1.8605    3.3366    0.0000 C   0  0  0  0  0  0  0  0  0  0  0  0
   -2.0685    4.3147    0.0000 N   0  0  0  0  0  0  0  0  0  0  0  0
   -1.2024    4.8147    0.0000 C   0  0  0  0  0  0  0  0  0  0  0  0
   -0.4593    4.1456    0.0000 N   0  0  0  0  0  0  0  0  0  0  0  0
   -0.0000    1.0000    0.0000 C   0  0  0  0  0  0  0  0  0  0  0  0
    0.8660    1.5000    0.0000 C   0  0  0  0  0  0  0  0  0  0  0  0
    1.7321    1.0000    0.0000 C   0  0  0  0  0  0  0  0  0  0  0  0
    1.7321    0.0000    0.0000 C   0  0  0  0  0  0  0  0  0  0  0  0
    2.5981   -0.5000    0.0000 F   0  0  0  0  0  0  0  0  0  0  0  0
    0.8660   -0.5000    0.0000 C   0  0  0  0  0  0  0  0  0  0  0  0
    0.0000   -0.0000    0.0000 C   0  0  0  0  0  0  0  0  0  0  0  0
   -0.8660   -0.5000    0.0000 F   0  0  0  0  0  0  0  0  0  0  0  0
  1  2  1  0  0  0  0
  2  3  1  1  0  0  0
  2  4  1  0  0  0  0
  2 11  1  0  0  0  0
  4  9  1  0  0  0  0
  4  5  2  0  0  0  0
  5  6  1  0  0  0  0
  6  7  2  0  0  0  0
  7  8  1  0  0  0  0
  8  9  2  0  0  0  0
  9 10  1  0  0  0  0
 11 12  1  1  0  0  0
 11 13  1  0  0  0  0
 11 19  1  0  0  0  0
 13 14  1  0  0  0  0
 14 18  1  0  0  0  0
 14 15  1  0  0  0  0
 15 16  2  0  0  0  0
 16 17  1  0  0  0  0
 17 18  2  0  0  0  0
 19 25  1  0  0  0  0
 19 20  2  0  0  0  0
 20 21  1  0  0  0  0
 21 22  2  0  0  0  0
 22 23  1  0  0  0  0
 22 24  1  0  0  0  0
 24 25  2  0  0  0  0
 25 26  1  0  0  0  0
M  END
$$$$

 OpenBabel10082008492D

 32 36  0  0  0  0  0  0  0  0999 V2000
    3.4557   -1.6168    0.0000 C   0  0  0  0  0  0  0  0  0  0  0  0
    2.9557   -0.7507    0.0000 N   0  0  0  0  0  0  0  0  0  0  0  0
    3.4557    0.1153    0.0000 C   0  0  0  0  0  0  0  0  0  0  0  0
    1.9557   -0.7507    0.0000 C   0  0  0  0  0  0  0  0  0  0  0  0
    1.4557    0.1153    0.0000 O   0  0  0  0  0  0  0  0  0  0  0  0
    1.4557   -1.6168    0.0000 C   0  0  0  0  0  0  0  0  0  0  0  0
    1.8625   -2.5303    0.0000 C   0  0  0  0  0  0  0  0  0  0  0  0
    1.1193   -3.1994    0.0000 C   0  0  0  0  0  0  0  0  0  0  0  0
    1.1193   -4.1994    0.0000 C   0  0  0  0  0  0  0  0  0  0  0  0
    0.2533   -4.6994    0.0000 N   0  0  0  0  0  0  0  0  0  0  0  0
   -0.6127   -4.1994    0.0000 C   0  0  0  0  0  0  0  0  0  0  0  0
   -1.4787   -4.6994    0.0000 N   0  0  0  0  0  0  0  0  0  0  0  0
   -2.3448   -4.1994    0.0000 C   0  0  0  0  0  0  0  0  0  0  0  0
   -3.2108   -4.6994    0.0000 C   0  0  0  0  0  0  0  0  0  0  0  0
   -4.0768   -4.1994    0.0000 C   0  0  0  0  0  0  0  0  0  0  0  0
   -4.0768   -3.1994    0.0000 C   0  0  0  0  0  0  0  0  0  0  0  0
   -4.9428   -2.6994    0.0000 N   0  0  0  0  0  0  0  0  0  0  0  0
   -5.8089   -3.1994    0.0000 C   0  0  0  0  0  0  0  0  0  0  0  0
   -6.6749   -2.6994    0.0000 C   0  0  0  0  0  0  0  0  0  0  0  0
   -6.6749   -1.6994    0.0000 N   0  0  0  0  0  0  0  0  0  0  0  0
   -5.8089   -1.1994    0.0000 C   0  0  0  0  0  0  0  0  0  0  0  0
   -4.9428   -1.6994    0.0000 C   0  0  0  0  0  0  0  0  0  0  0  0
   -3.2108   -2.6994    0.0000 C   0  0  0  0  0  0  0  0  0  0  0  0
   -2.3448   -3.1994    0.0000 N   0  0  0  0  0  0  0  0  0  0  0  0
   -0.6127   -3.1994    0.0000 N   0  0  0  0  0  0  0  0  0  0  0  0
    0.2533   -2.6994    0.0000 C   0  0  0  0  0  0  0  0  0  0  0  0
    0.4612   -1.7213    0.0000 N   0  0  0  0  0  0  0  0  0  0  0  0
   -0.2079   -0.9781    0.0000 C   0  0  0  0  0  0  0  0  0  0  0  0
   -1.2024   -1.0827    0.0000 C   0  0  0  0  0  0  0  0  0  0  0  0
   -1.6092   -0.1691    0.0000 C   0  0  0  0  0  0  0  0  0  0  0  0
   -0.8660    0.5000    0.0000 C   0  0  0  0  0  0  0  0  0  0  0  0
   -0.0000   -0.0000    0.0000 C   0  0  0  0  0  0  0  0  0  0  0  0
  1  2  1  0  0  0  0
  2  3  1  0  0  0  0
  2  4  1  0  0  0  0
  4  5  2  0  0  0  0
  4  6  1  0  0  0  0
  6 27  1  0  0  0  0
  6  7  2  0  0  0  0
  7  8  1  0  0  0  0
  8 26  1  0  0  0  0
  8  9  2  0  0  0  0
  9 10  1  0  0  0  0
 10 11  2  0  0  0  0
 11 12  1  0  0  0  0
 11 25  1  0  0  0  0
 12 13  1  0  0  0  0
 13 24  1  0  0  0  0
 13 14  2  0  0  0  0
 14 15  1  0  0  0  0
 15 16  2  0  0  0  0
 16 17  1  0  0  0  0
 16 23  1  0  0  0  0
 17 22  1  0  0  0  0
 17 18  1  0  0  0  0
 18 19  1  0  0  0  0
 19 20  1  0  0  0  0
 20 21  1  0  0  0  0
 21 22  1  0  0  0  0
 23 24  2  0  0  0  0
 25 26  2  0  0  0  0
 26 27  1  0  0  0  0
 27 28  1  0  0  0  0
 28 32  1  0  0  0  0
 28 29  1  0  0  0  0
 29 30  1  0  0  0  0
 30 31  1  0  0  0  0
 31 32  1  0  0  0  0
M  END
$$$$

 OpenBabel10082008492D

 38 42  0  0  1  0  0  0  0  0999 V2000
    3.0981   -2.3660    0.0000 C   0  0  0  0  0  0  0  0  0  0  0  0
    3.9641   -1.8660    0.0000 O   0  0  0  0  0  0  0  0  0  0  0  0
    3.9641   -0.8660    0.0000 C   0  0  0  0  0  0  0  0  0  0  0  0
    4.8301   -0.3660    0.0000 N   0  0  0  0  0  0  0  0  0  0  0  0
    4.8301    0.6340    0.0000 C   0  0  0  0  0  0  0  0  0  0  0  0
    5.6962    1.1340    0.0000 C   0  0  0  0  0  0  0  0  0  0  0  0
    5.6962    2.1340    0.0000 C   0  0  0  0  0  0  0  0  0  0  0  0
    4.8301    2.6340    0.0000 C   0  0  0  0  0  0  0  0  0  0  0  0
    4.8301    3.6340    0.0000 Br  0  0  0  0  0  0  0  0  0  0  0  0
    3.9641    2.1340    0.0000 C   0  0  0  0  0  0  0  0  0  0  0  0
    3.9641    1.1340    0.0000 C   0  0  0  0  0  0  0  0  0  0  0  0
    3.0981    0.6340    0.0000 C   0  0  0  0  0  0  0  0  0  0  0  0
    3.0981   -0.3660    0.0000 C   0  0  0  0  0  0  0  0  0  0  0  0
    2.2321   -0.8660    0.0000 C   0  0  1  0  0  0  0  0  0  0  0  0
    2.7321   -1.7321    0.0000 H   0  0  0  0  0  0  0  0  0  0  0  0
    1.3660   -1.3660    0.0000 C   0  0  0  0  0  0  0  0  0  0  0  0
    0.5000   -0.8660    0.0000 C   0  0  0  0  0  0  0  0  0  0  0  0
   -0.3660   -1.3660    0.0000 C   0  0  0  0  0  0  0  0  0  0  0  0
   -0.3660   -2.3660    0.0000 C   0  0  0  0  0  0  0  0  0  0  0  0
    0.5000   -2.8660    0.0000 C   0  0  0  0  0  0  0  0  0  0  0  0
    1.3660   -2.3660    0.0000 C   0  0  0  0  0  0  0  0  0  0  0  0
    1.7321   -0.0000    0.0000 C   0  0  1  0  0  0  0  0  0  0  0  0
    2.5981    0.5000    0.0000 O   0  0  0  0  0  0  0  0  0  0  0  0
    1.2321    0.8660    0.0000 C   0  0  0  0  0  0  0  0  0  0  0  0
    1.7321    1.7321    0.0000 C   0  0  0  0  0  0  0  0  0  0  0  0
    1.2321    2.5981    0.0000 N   0  0  0  0  0  0  0  0  0  0  0  0
    0.2321    2.5981    0.0000 C   0  0  0  0  0  0  0  0  0  0  0  0
    1.7321    3.4641    0.0000 C   0  0  0  0  0  0  0  0  0  0  0  0
    0.8660   -0.5000    0.0000 C   0  0  0  0  0  0  0  0  0  0  0  0
    0.8660   -1.5000    0.0000 C   0  0  0  0  0  0  0  0  0  0  0  0
   -0.0000   -2.0000    0.0000 C   0  0  0  0  0  0  0  0  0  0  0  0
   -0.8660   -1.5000    0.0000 C   0  0  0  0  0  0  0  0  0  0  0  0
   -0.8660   -0.5000    0.0000 C   0  0  0  0  0  0  0  0  0  0  0  0
   -1.7321    0.0000    0.0000 C   0  0  0  0  0  0  0  0  0  0  0  0
   -1.7321    1.0000    0.0000 C   0  0  0  0  0  0  0  0  0  0  0  0
   -0.8660    1.5000    0.0000 C   0  0  0  0  0  0  0  0  0  0  0  0
    0.0000    1.0000    0.0000 C   0  0  0  0  0  0  0  0  0  0  0  0
    0.0000    0.0000    0.0000 C   0  0  0  0  0  0  0  0  0  0  0  0
  1  2  1  0  0  0  0
  2  3  1  0  0  0  0
  3 13  1  0  0  0  0
  3  4  2  0  0  0  0
  4  5  1  0  0  0  0
  5 11  1  0  0  0  0
  5  6  2  0  0  0  0
  6  7  1  0  0  0  0
  7  8  2  0  0  0  0
  8  9  1  0  0  0  0
  8 10  1  0  0  0  0
 10 11  2  0  0  0  0
 11 12  1  0  0  0  0
 12 13  2  0  0  0  0
 13 14  1  0  0  0  0
 14 15  1  6  0  0  0
 14 16  1  0  0  0  0
 14 22  1  0  0  0  0
 16 21  1  0  0  0  0
 16 17  2  0  0  0  0
 17 18  1  0  0  0  0
 18 19  2  0  0  0  0
 19 20  1  0  0  0  0
 20 21  2  0  0  0  0
 22 23  1  1  0  0  0
 22 24  1  0  0  0  0
 22 29  1  0  0  0  0
 24 25  1  0  0  0  0
 25 26  1  0  0  0  0
 26 27  1  0  0  0  0
 26 28  1  0  0  0  0
 29 38  1  0  0  0  0
 29 30  2  0  0  0  0
 30 31  1  0  0  0  0
 31 32  2  0  0  0  0
 32 33  1  0  0  0  0
 33 38  1  0  0  0  0
 33 34  2  0  0  0  0
 34 35  1  0  0  0  0
 35 36  2  0  0  0  0
 36 37  1  0  0  0  0
 37 38  2  0  0  0  0
M  END
$$$$

 OpenBabel10082008492D

 32 34  0  0  1  0  0  0  0  0999 V2000
   -2.5981   -3.5000    0.0000 C   0  0  0  0  0  0  0  0  0  0  0  0
   -1.7321   -3.0000    0.0000 O   0  0  0  0  0  0  0  0  0  0  0  0
   -1.7321   -2.0000    0.0000 C   0  0  0  0  0  0  0  0  0  0  0  0
   -0.8660   -1.5000    0.0000 C   0  0  0  0  0  0  0  0  0  0  0  0
   -0.8660   -0.5000    0.0000 C   0  0  0  0  0  0  0  0  0  0  0  0
   -1.7321   -0.0000    0.0000 C   0  0  0  0  0  0  0  0  0  0  0  0
   -2.5981   -0.5000    0.0000 C   0  0  0  0  0  0  0  0  0  0  0  0
   -2.5981   -1.5000    0.0000 C   0  0  0  0  0  0  0  0  0  0  0  0
   -3.4641   -2.0000    0.0000 C   0  0  0  0  0  0  0  0  0  0  0  0
   -4.3301   -1.5000    0.0000 C   0  0  0  0  0  0  0  0  0  0  0  0
   -4.3301   -0.5000    0.0000 C   0  0  0  0  0  0  0  0  0  0  0  0
   -5.1962    0.0000    0.0000 C   0  0  0  0  0  0  0  0  0  0  0  0
   -6.0622   -0.5000    0.0000 C   0  0  0  0  0  0  0  0  0  0  0  0
   -6.0622   -1.5000    0.0000 C   0  0  0  0  0  0  0  0  0  0  0  0
   -6.9282   -2.0000    0.0000 Cl  0  0  0  0  0  0  0  0  0  0  0  0
   -5.1962   -2.0000    0.0000 C   0  0  0  0  0  0  0  0  0  0  0  0
   -5.1962   -3.0000    0.0000 F   0  0  0  0  0  0  0  0  0  0  0  0
   -1.7321    1.0000    0.0000 C   0  0  0  0  0  0  0  0  0  0  0  0
   -2.5981    1.5000    0.0000 O   0  0  0  0  0  0  0  0  0  0  0  0
   -0.8660    1.5000    0.0000 C   0  0  0  0  0  0  0  0  0  0  0  0
   -0.8660    2.5000    0.0000 C   0  0  0  0  0  0  0  0  0  0  0  0
   -1.7321    3.0000    0.0000 O   0  0  0  0  0  0  0  0  0  0  0  0
   -0.0000    3.0000    0.0000 O   0  0  0  0  0  0  0  0  0  0  0  0
   -0.0000    1.0000    0.0000 C   0  0  0  0  0  0  0  0  0  0  0  0
    0.0000    0.0000    0.0000 N   0  0  0  0  0  0  0  0  0  0  0  0
    0.8660   -0.5000    0.0000 C   0  0  2  0  0  0  0  0  0  0  0  0
    0.3660   -1.3660    0.0000 H   0  0  0  0  0  0  0  0  0  0  0  0
    1.7321   -1.0000    0.0000 C   0  0  0  0  0  0  0  0  0  0  0  0
    1.7321   -2.0000    0.0000 O   0  0  0  0  0  0  0  0  0  0  0  0
    1.3660    0.3660    0.0000 C   0  0  0  0  0  0  0  0  0  0  0  0
    2.3660    0.3660    0.0000 C   0  0  0  0  0  0  0  0  0  0  0  0
    0.8660    1.2321    0.0000 C   0  0  0  0  0  0  0  0  0  0  0  0
  1  2  1  0  0  0  0
  2  3  1  0  0  0  0
  3  8  1  0  0  0  0
  3  4  2  0  0  0  0
  4  5  1  0  0  0  0
  5 25  1  0  0  0  0
  5  6  2  0  0  0  0
  6  7  1  0  0  0  0
  6 18  1  0  0  0  0
  7  8  2  0  0  0  0
  8  9  1  0  0  0  0
  9 10  1  0  0  0  0
 10 16  1  0  0  0  0
 10 11  2  0  0  0  0
 11 12  1  0  0  0  0
 12 13  2  0  0  0  0
 13 14  1  0  0  0  0
 14 15  1  0  0  0  0
 14 16  2  0  0  0  0
 16 17  1  0  0  0  0
 18 19  2  0  0  0  0
 18 20  1  0  0  0  0
 20 21  1  0  0  0  0
 20 24  2  0  0  0  0
 21 22  2  0  0  0  0
 21 23  1  0  0  0  0
 24 25  1  0  0  0  0
 25 26  1  0  0  0  0
 26 27  1  6  0  0  0
 26 28  1  0  0  0  0
 26 30  1  0  0  0  0
 28 29  1  0  0  0  0
 30 31  1  0  0  0  0
 30 32  1  0  0  0  0
M  END
$$$$

 OpenBabel10082008492D

 21 22  0  0  1  0  0  0  0  0999 V2000
   -5.1962   -3.0000    0.0000 C   0  0  0  0  0  0  0  0  0  0  0  0
   -4.3301   -3.5000    0.0000 C   0  0  0  0  0  0  0  0  0  0  0  0
   -3.3301   -3.5000    0.0000 C   0  0  0  0  0  0  0  0  0  0  0  0
   -3.8301   -2.6340    0.0000 C   0  0  0  0  0  0  0  0  0  0  0  0
   -4.3301   -4.5000    0.0000 N   0  0  0  0  0  0  0  0  0  0  0  0
   -3.4641   -5.0000    0.0000 C   0  0  0  0  0  0  0  0  0  0  0  0
   -2.5981   -4.5000    0.0000 C   0  0  3  0  0  0  0  0  0  0  0  0
   -1.7321   -5.0000    0.0000 O   0  0  0  0  0  0  0  0  0  0  0  0
   -2.5981   -3.5000    0.0000 C   0  0  0  0  0  0  0  0  0  0  0  0
   -1.7321   -3.0000    0.0000 O   0  0  0  0  0  0  0  0  0  0  0  0
   -1.7321   -2.0000    0.0000 C   0  0  0  0  0  0  0  0  0  0  0  0
   -2.5981   -1.5000    0.0000 C   0  0  0  0  0  0  0  0  0  0  0  0
   -2.5981   -0.5000    0.0000 C   0  0  0  0  0  0  0  0  0  0  0  0
   -1.7321    0.0000    0.0000 C   0  0  0  0  0  0  0  0  0  0  0  0
   -0.8660   -0.5000    0.0000 C   0  0  0  0  0  0  0  0  0  0  0  0
   -0.8660   -1.5000    0.0000 C   0  0  0  0  0  0  0  0  0  0  0  0
    0.0000   -2.0000    0.0000 C   0  0  0  0  0  0  0  0  0  0  0  0
    0.8660   -1.5000    0.0000 C   0  0  0  0  0  0  0  0  0  0  0  0
    0.8660   -0.5000    0.0000 C   0  0  0  0  0  0  0  0  0  0  0  0
    1.7321    0.0000    0.0000 O   0  0  0  0  0  0  0  0  0  0  0  0
    0.0000   -0.0000    0.0000 N   0  0  0  0  0  0  0  0  0  0  0  0
  1  2  1  0  0  0  0
  2  3  1  0  0  0  0
  2  4  1  0  0  0  0
  2  5  1  0  0  0  0
  5  6  1  0  0  0  0
  6  7  1  0  0  0  0
  7  8  1  0  0  0  0
  7  9  1  0  0  0  0
  9 10  1  0  0  0  0
 10 11  1  0  0  0  0
 11 16  1  0  0  0  0
 11 12  2  0  0  0  0
 12 13  1  0  0  0  0
 13 14  2  0  0  0  0
 14 15  1  0  0  0  0
 15 21  1  0  0  0  0
 15 16  2  0  0  0  0
 16 17  1  0  0  0  0
 17 18  1  0  0  0  0
 18 19  1  0  0  0  0
 19 20  2  0  0  0  0
 19 21  1  0  0  0  0
M  END
$$$$

 OpenBabel10082008492D

 14 14  0  0  1  0  0  0  0  0999 V2000
    2.5981   -1.5000    0.0000 N   0  0  0  0  0  0  0  0  0  0  0  0
    2.5981   -0.5000    0.0000 C   0  0  0  0  0  0  0  0  0  0  0  0
    1.7321   -0.0000    0.0000 C   0  0  3  0  0  0  0  0  0  0  0  0
    1.7321    1.0000    0.0000 C   0  0  0  0  0  0  0  0  0  0  0  0
    0.8660    1.5000    0.0000 C   0  0  0  0  0  0  0  0  0  0  0  0
    0.8660    2.5000    0.0000 O   0  0  0  0  0  0  0  0  0  0  0  0
    0.0000    1.0000    0.0000 O   0  0  0  0  0  0  0  0  0  0  0  0
    0.8660   -0.5000    0.0000 C   0  0  0  0  0  0  0  0  0  0  0  0
    0.8660   -1.5000    0.0000 C   0  0  0  0  0  0  0  0  0  0  0  0
    0.0000   -2.0000    0.0000 C   0  0  0  0  0  0  0  0  0  0  0  0
   -0.8660   -1.5000    0.0000 C   0  0  0  0  0  0  0  0  0  0  0  0
   -1.7321   -2.0000    0.0000 Cl  0  0  0  0  0  0  0  0  0  0  0  0
   -0.8660   -0.5000    0.0000 C   0  0  0  0  0  0  0  0  0  0  0  0
    0.0000    0.0000    0.0000 C   0  0  0  0  0  0  0  0  0  0  0  0
  1  2  1  0  0  0  0
  2  3  1  0  0  0  0
  3  4  1  0  0  0  0
  3  8  1  0  0  0  0
  4  5  1  0  0  0  0
  5  6  2  0  0  0  0
  5  7  1  0  0  0  0
  8 14  1  0  0  0  0
  8  9  2  0  0  0  0
  9 10  1  0  0  0  0
 10 11  2  0  0  0  0
 11 12  1  0  0  0  0
 11 13  1  0  0  0  0
 13 14  2  0  0  0  0
M  END
$$$$

 OpenBabel10082008492D

 23 25  0  0  0  0  0  0  0  0999 V2000
    1.5000   -0.8660    0.0000 C   0  0  0  0  0  0  0  0  0  0  0  0
    0.5000   -0.8660    0.0000 C   0  0  0  0  0  0  0  0  0  0  0  0
   -0.0000   -1.7321    0.0000 C   0  0  0  0  0  0  0  0  0  0  0  0
   -1.0000   -1.7321    0.0000 C   0  0  0  0  0  0  0  0  0  0  0  0
   -1.5000   -0.8660    0.0000 C   0  0  0  0  0  0  0  0  0  0  0  0
   -2.5000   -0.8660    0.0000 C   0  0  0  0  0  0  0  0  0  0  0  0
   -3.0878   -1.6750    0.0000 N   0  0  0  0  0  0  0  0  0  0  0  0
   -4.0388   -1.3660    0.0000 C   0  0  0  0  0  0  0  0  0  0  0  0
   -4.9049   -1.8660    0.0000 C   0  0  0  0  0  0  0  0  0  0  0  0
   -5.7709   -1.3660    0.0000 C   0  0  0  0  0  0  0  0  0  0  0  0
   -5.7709   -0.3660    0.0000 C   0  0  0  0  0  0  0  0  0  0  0  0
   -6.6369    0.1340    0.0000 C   0  0  0  0  0  0  0  0  0  0  0  0
   -4.9049    0.1340    0.0000 C   0  0  0  0  0  0  0  0  0  0  0  0
   -4.0388   -0.3660    0.0000 N   0  0  0  0  0  0  0  0  0  0  0  0
   -3.0878   -0.0570    0.0000 C   0  0  0  0  0  0  0  0  0  0  0  0
   -2.7788    0.8940    0.0000 C   0  0  0  0  0  0  0  0  0  0  0  0
   -3.4479    1.6372    0.0000 C   0  0  0  0  0  0  0  0  0  0  0  0
   -4.4260    1.4293    0.0000 O   0  0  0  0  0  0  0  0  0  0  0  0
   -3.1389    2.5882    0.0000 N   0  0  0  0  0  0  0  0  0  0  0  0
   -3.8080    3.3314    0.0000 C   0  0  0  0  0  0  0  0  0  0  0  0
   -2.1607    2.7962    0.0000 C   0  0  0  0  0  0  0  0  0  0  0  0
   -1.0000    0.0000    0.0000 C   0  0  0  0  0  0  0  0  0  0  0  0
   -0.0000   -0.0000    0.0000 C   0  0  0  0  0  0  0  0  0  0  0  0
  1  2  1  0  0  0  0
  2 23  1  0  0  0  0
  2  3  2  0  0  0  0
  3  4  1  0  0  0  0
  4  5  2  0  0  0  0
  5  6  1  0  0  0  0
  5 22  1  0  0  0  0
  6 15  2  0  0  0  0
  6  7  1  0  0  0  0
  7  8  2  0  0  0  0
  8 14  1  0  0  0  0
  8  9  1  0  0  0  0
  9 10  2  0  0  0  0
 10 11  1  0  0  0  0
 11 12  1  0  0  0  0
 11 13  2  0  0  0  0
 13 14  1  0  0  0  0
 14 15  1  0  0  0  0
 15 16  1  0  0  0  0
 16 17  1  0  0  0  0
 17 18  2  0  0  0  0
 17 19  1  0  0  0  0
 19 20  1  0  0  0  0
 19 21  1  0  0  0  0
 22 23  2  0  0  0  0
M  END
$$$$

 OpenBabel10082008492D

 16 16  0  0  0  0  0  0  0  0999 V2000
    2.6390    1.1895    0.0000 C   0  0  0  0  0  0  0  0  0  0  0  0
    1.6730    1.4483    0.0000 C   0  0  0  0  0  0  0  0  0  0  0  0
    0.9659    0.7412    0.0000 C   0  0  0  0  0  0  0  0  0  0  0  0
    0.0000    1.0000    0.0000 C   0  0  0  0  0  0  0  0  0  0  0  0
   -0.1305    1.9914    0.0000 C   0  0  0  0  0  0  0  0  0  0  0  0
    0.6628    2.6002    0.0000 C   0  0  0  0  0  0  0  0  0  0  0  0
    1.5867    2.2175    0.0000 C   0  0  0  0  0  0  0  0  0  0  0  0
    0.5323    3.5917    0.0000 C   0  0  0  0  0  0  0  0  0  0  0  0
   -0.8660    1.5000    0.0000 C   0  0  0  0  0  0  0  0  0  0  0  0
   -0.8660    2.5000    0.0000 O   0  0  0  0  0  0  0  0  0  0  0  0
   -1.7321    1.0000    0.0000 N   0  0  0  0  0  0  0  0  0  0  0  0
   -1.7321    0.0000    0.0000 C   0  0  0  0  0  0  0  0  0  0  0  0
   -2.5981   -0.5000    0.0000 O   0  0  0  0  0  0  0  0  0  0  0  0
   -0.8660   -0.5000    0.0000 N   0  0  0  0  0  0  0  0  0  0  0  0
   -0.0000   -0.0000    0.0000 C   0  0  0  0  0  0  0  0  0  0  0  0
    0.8660   -0.5000    0.0000 O   0  0  0  0  0  0  0  0  0  0  0  0
  1  2  2  0  0  0  0
  2  3  1  0  0  0  0
  3  4  1  0  0  0  0
  4 15  1  0  0  0  0
  4  5  1  0  0  0  0
  4  9  1  0  0  0  0
  5  6  1  0  0  0  0
  6  7  1  0  0  0  0
  6  8  1  0  0  0  0
  9 10  2  0  0  0  0
  9 11  1  0  0  0  0
 11 12  1  0  0  0  0
 12 13  2  0  0  0  0
 12 14  1  0  0  0  0
 14 15  1  0  0  0  0
 15 16  2  0  0  0  0
M  END
$$$$

 OpenBabel10082008492D

 10 10  0  0  1  0  0  0  0  0999 V2000
   -2.5981   -1.5000    0.0000 C   0  0  0  0  0  0  0  0  0  0  0  0
   -1.7321   -2.0000    0.0000 C   0  0  3  0  0  0  0  0  0  0  0  0
   -1.7321   -3.0000    0.0000 N   0  0  0  0  0  0  0  0  0  0  0  0
   -0.8660   -1.5000    0.0000 C   0  0  0  0  0  0  0  0  0  0  0  0
   -0.8660   -0.5000    0.0000 C   0  0  0  0  0  0  0  0  0  0  0  0
   -1.7321   -0.0000    0.0000 C   0  0  0  0  0  0  0  0  0  0  0  0
   -1.7321    1.0000    0.0000 C   0  0  0  0  0  0  0  0  0  0  0  0
   -0.8660    1.5000    0.0000 C   0  0  0  0  0  0  0  0  0  0  0  0
   -0.0000    1.0000    0.0000 C   0  0  0  0  0  0  0  0  0  0  0  0
    0.0000   -0.0000    0.0000 C   0  0  0  0  0  0  0  0  0  0  0  0
  1  2  1  0  0  0  0
  2  3  1  0  0  0  0
  2  4  1  0  0  0  0
  4  5  1  0  0  0  0
  5 10  1  0  0  0  0
  5  6  2  0  0  0  0
  6  7  1  0  0  0  0
  7  8  2  0  0  0  0
  8  9  1  0  0  0  0
  9 10  2  0  0  0  0
M  END
$$$$

 OpenBabel10082008492D

 12 13  0  0  1  0  0  0  0  0999 V2000
    1.7514   -1.4078    0.0000 C   0  0  0  0  0  0  0  0  0  0  0  0
    0.8128   -1.4078    0.0000 N   0  0  0  0  0  0  0  0  0  0  0  0
    0.0000   -0.9385    0.0000 C   0  0  3  0  0  0  0  0  0  0  0  0
    0.0000   -1.8945    0.0000 C   0  0  0  0  0  0  0  0  0  0  0  0
   -0.8129   -1.4079    0.0000 C   0  0  3  0  0  0  0  0  0  0  0  0
   -1.6259   -0.9386    0.0000 C   0  0  0  0  0  0  0  0  0  0  0  0
   -1.6259   -0.0000    0.0000 C   0  0  0  0  0  0  0  0  0  0  0  0
   -0.8129    0.4694    0.0000 C   0  0  3  0  0  0  0  0  0  0  0  0
   -1.2250   -0.4692    0.0000 C   0  0  0  0  0  0  0  0  0  0  0  0
    0.0000   -0.0000    0.0000 C   0  0  0  0  0  0  0  0  0  0  0  0
    0.8279    0.4780    0.0000 C   0  0  0  0  0  0  0  0  0  0  0  0
   -0.0000    0.9559    0.0000 C   0  0  0  0  0  0  0  0  0  0  0  0
  1  2  1  0  0  0  0
  2  3  1  0  0  0  0
  3 10  1  0  0  0  0
  3  4  1  0  0  0  0
  3  5  1  0  0  0  0
  5  9  1  0  0  0  0
  5  6  1  0  0  0  0
  6  7  1  0  0  0  0
  7  8  1  0  0  0  0
  8  9  1  0  0  0  0
  8 10  1  0  0  0  0
 10 11  1  0  0  0  0
 10 12  1  0  0  0  0
M  END
$$$$

 OpenBabel10082008492D

 33 37  0  0  1  0  0  0  0  0999 V2000
   -1.7321   -2.0000    0.0000 C   0  0  0  0  0  0  0  0  0  0  0  0
   -0.8660   -1.5000    0.0000 O   0  0  0  0  0  0  0  0  0  0  0  0
   -0.8660   -0.5000    0.0000 C   0  0  0  0  0  0  0  0  0  0  0  0
   -1.7321   -0.0000    0.0000 C   0  0  0  0  0  0  0  0  0  0  0  0
   -1.7321    1.0000    0.0000 C   0  0  0  0  0  0  0  0  0  0  0  0
   -2.5981    1.5000    0.0000 N   0  0  0  0  0  0  0  0  0  0  0  0
   -2.5981    2.5000    0.0000 C   0  0  0  0  0  0  0  0  0  0  0  0
   -3.4641    3.0000    0.0000 N   0  0  0  0  0  0  0  0  0  0  0  0
   -4.3301    2.5000    0.0000 C   0  0  0  0  0  0  0  0  0  0  0  0
   -5.1962    3.0000    0.0000 C   0  0  0  0  0  0  0  0  0  0  0  0
   -5.1962    4.0000    0.0000 N   0  0  0  0  0  0  0  0  0  0  0  0
   -6.0622    4.5000    0.0000 C   0  0  0  0  0  0  0  0  0  0  0  0
   -6.0622    5.5000    0.0000 O   0  0  0  0  0  0  0  0  0  0  0  0
   -6.9282    4.0000    0.0000 C   0  0  3  0  0  0  0  0  0  0  0  0
   -6.9282    3.0000    0.0000 C   0  0  0  0  0  0  0  0  0  0  0  0
   -7.7942    2.5000    0.0000 O   0  0  0  0  0  0  0  0  0  0  0  0
   -8.6603    3.0000    0.0000 C   0  0  0  0  0  0  0  0  0  0  0  0
   -9.5263    2.5000    0.0000 C   0  0  0  0  0  0  0  0  0  0  0  0
  -10.3923    3.0000    0.0000 C   0  0  0  0  0  0  0  0  0  0  0  0
  -10.3923    4.0000    0.0000 C   0  0  0  0  0  0  0  0  0  0  0  0
   -9.5263    4.5000    0.0000 C   0  0  0  0  0  0  0  0  0  0  0  0
   -8.6603    4.0000    0.0000 C   0  0  0  0  0  0  0  0  0  0  0  0
   -7.7942    4.5000    0.0000 O   0  0  0  0  0  0  0  0  0  0  0  0
   -4.3301    4.5000    0.0000 C   0  0  0  0  0  0  0  0  0  0  0  0
   -3.4641    4.0000    0.0000 C   0  0  0  0  0  0  0  0  0  0  0  0
   -1.7321    3.0000    0.0000 N   0  0  0  0  0  0  0  0  0  0  0  0
   -0.8660    2.5000    0.0000 C   0  0  0  0  0  0  0  0  0  0  0  0
   -0.0000    3.0000    0.0000 N   0  0  0  0  0  0  0  0  0  0  0  0
   -0.8660    1.5000    0.0000 C   0  0  0  0  0  0  0  0  0  0  0  0
   -0.0000    1.0000    0.0000 C   0  0  0  0  0  0  0  0  0  0  0  0
    0.0000    0.0000    0.0000 C   0  0  0  0  0  0  0  0  0  0  0  0
    0.8660   -0.5000    0.0000 O   0  0  0  0  0  0  0  0  0  0  0  0
    1.7321    0.0000    0.0000 C   0  0  0  0  0  0  0  0  0  0  0  0
  1  2  1  0  0  0  0
  2  3  1  0  0  0  0
  3 31  1  0  0  0  0
  3  4  2  0  0  0  0
  4  5  1  0  0  0  0
  5 29  1  0  0  0  0
  5  6  2  0  0  0  0
  6  7  1  0  0  0  0
  7  8  1  0  0  0  0
  7 26  2  0  0  0  0
  8 25  1  0  0  0  0
  8  9  1  0  0  0  0
  9 10  1  0  0  0  0
 10 11  1  0  0  0  0
 11 12  1  0  0  0  0
 11 24  1  0  0  0  0
 12 13  2  0  0  0  0
 12 14  1  0  0  0  0
 14 23  1  0  0  0  0
 14 15  1  0  0  0  0
 15 16  1  0  0  0  0
 16 17  1  0  0  0  0
 17 22  1  0  0  0  0
 17 18  2  0  0  0  0
 18 19  1  0  0  0  0
 19 20  2  0  0  0  0
 20 21  1  0  0  0  0
 21 22  2  0  0  0  0
 22 23  1  0  0  0  0
 24 25  1  0  0  0  0
 26 27  1  0  0  0  0
 27 28  1  0  0  0  0
 27 29  2  0  0  0  0
 29 30  1  0  0  0  0
 30 31  2  0  0  0  0
 31 32  1  0  0  0  0
 32 33  1  0  0  0  0
M  END
$$$$

 OpenBabel10082008492D

 37 42  0  0  0  0  0  0  0  0999 V2000
    4.2451   -0.4804    0.0000 C   0  0  0  0  0  0  0  0  0  0  0  0
    3.3717    0.0238    0.0000 C   0  0  0  0  0  0  0  0  0  0  0  0
    2.4984   -0.4805    0.0000 C   0  0  0  0  0  0  0  0  0  0  0  0
    1.6654    0.0004    0.0000 C   0  0  0  0  0  0  0  0  0  0  0  0
    0.8324   -0.4806    0.0000 C   0  0  0  0  0  0  0  0  0  0  0  0
    0.8325   -1.4424    0.0000 C   0  0  0  0  0  0  0  0  0  0  0  0
    1.6655   -1.9233    0.0000 C   0  0  0  0  0  0  0  0  0  0  0  0
    2.4984   -1.4423    0.0000 C   0  0  0  0  0  0  0  0  0  0  0  0
    3.3718   -1.9465    0.0000 N   0  0  0  0  0  0  0  0  0  0  0  0
    4.2451   -1.4422    0.0000 C   0  0  0  0  0  0  0  0  0  0  0  0
    5.1185   -1.9464    0.0000 C   0  0  0  0  0  0  0  0  0  0  0  0
    5.1186   -2.9549    0.0000 C   0  0  0  0  0  0  0  0  0  0  0  0
    5.9920   -3.4591    0.0000 N   0  0  0  0  0  0  0  0  0  0  0  0
    6.8653   -2.9548    0.0000 C   0  0  0  0  0  0  0  0  0  0  0  0
    7.7387   -3.4589    0.0000 C   0  0  0  0  0  0  0  0  0  0  0  0
    7.7388   -4.4674    0.0000 O   0  0  0  0  0  0  0  0  0  0  0  0
    6.8654   -4.9717    0.0000 C   0  0  0  0  0  0  0  0  0  0  0  0
    5.9920   -4.4675    0.0000 C   0  0  0  0  0  0  0  0  0  0  0  0
    4.2453   -3.4592    0.0000 C   0  0  0  0  0  0  0  0  0  0  0  0
    3.3719   -2.9550    0.0000 C   0  0  0  0  0  0  0  0  0  0  0  0
    0.0001   -1.9231    0.0000 C   0  0  0  0  0  0  0  0  0  0  0  0
    0.0002   -2.9251    0.0000 C   0  0  0  0  0  0  0  0  0  0  0  0
   -0.8676   -2.4242    0.0000 C   0  0  0  0  0  0  0  0  0  0  0  0
   -0.8328   -1.4425    0.0000 C   0  0  0  0  0  0  0  0  0  0  0  0
   -1.6652   -1.9232    0.0000 N   0  0  0  0  0  0  0  0  0  0  0  0
   -1.6650   -2.9252    0.0000 H   0  0  0  0  0  0  0  0  0  0  0  0
   -2.4982   -1.4426    0.0000 C   0  0  0  0  0  0  0  0  0  0  0  0
   -3.3310   -1.9233    0.0000 C   0  0  0  0  0  0  0  0  0  0  0  0
   -4.1635   -1.4427    0.0000 C   0  0  0  0  0  0  0  0  0  0  0  0
   -4.9959   -1.9234    0.0000 C   0  0  0  0  0  0  0  0  0  0  0  0
   -4.7960   -2.8636    0.0000 N   0  0  0  0  0  0  0  0  0  0  0  0
   -4.1635   -0.4809    0.0000 C   0  0  0  0  0  0  0  0  0  0  0  0
   -3.3312   -0.0002    0.0000 C   0  0  0  0  0  0  0  0  0  0  0  0
   -2.4982   -0.4808    0.0000 C   0  0  0  0  0  0  0  0  0  0  0  0
   -0.8329   -0.4807    0.0000 C   0  0  0  0  0  0  0  0  0  0  0  0
    0.0000   -0.0000    0.0000 C   0  0  0  0  0  0  0  0  0  0  0  0
    0.0001    1.0000    0.0000 O   0  0  0  0  0  0  0  0  0  0  0  0
  1  2  1  0  0  0  0
  2  3  1  0  0  0  0
  3  8  1  0  0  0  0
  3  4  2  0  0  0  0
  4  5  1  0  0  0  0
  5 36  1  0  0  0  0
  5  6  2  0  0  0  0
  6  7  1  0  0  0  0
  6 21  1  0  0  0  0
  7  8  2  0  0  0  0
  8  9  1  0  0  0  0
  9 20  1  0  0  0  0
  9 10  1  0  0  0  0
 10 11  1  0  0  0  0
 11 12  1  0  0  0  0
 12 13  1  0  0  0  0
 12 19  1  0  0  0  0
 13 18  1  0  0  0  0
 13 14  1  0  0  0  0
 14 15  1  0  0  0  0
 15 16  1  0  0  0  0
 16 17  1  0  0  0  0
 17 18  1  0  0  0  0
 19 20  1  0  0  0  0
 21 22  1  0  0  0  0
 21 23  1  0  0  0  0
 21 24  1  0  0  0  0
 24 35  2  0  0  0  0
 24 25  1  0  0  0  0
 25 26  1  0  0  0  0
 25 27  1  0  0  0  0
 27 34  1  0  0  0  0
 27 28  2  0  0  0  0
 28 29  1  0  0  0  0
 29 30  1  0  0  0  0
 29 32  2  0  0  0  0
 30 31  3  0  0  0  0
 32 33  1  0  0  0  0
 33 34  2  0  0  0  0
 34 35  1  0  0  0  0
 35 36  1  0  0  0  0
 36 37  2  0  0  0  0
M  END
$$$$

 OpenBabel10082008492D

 28 32  0  0  0  0  0  0  0  0999 V2000
    1.5878   -0.8090    0.0000 O   0  0  0  0  0  0  0  0  0  0  0  0
    0.5878   -0.8090    0.0000 C   0  0  0  0  0  0  0  0  0  0  0  0
   -0.0000   -1.6180    0.0000 C   0  0  0  0  0  0  0  0  0  0  0  0
   -0.9511   -1.3090    0.0000 C   0  0  0  0  0  0  0  0  0  0  0  0
   -1.8171   -1.8090    0.0000 C   0  0  0  0  0  0  0  0  0  0  0  0
   -2.6831   -1.3090    0.0000 C   0  0  0  0  0  0  0  0  0  0  0  0
   -3.5491   -1.8090    0.0000 C   0  0  0  0  0  0  0  0  0  0  0  0
   -3.5491   -2.8090    0.0000 C   0  0  0  0  0  0  0  0  0  0  0  0
   -4.4152   -3.3090    0.0000 N   0  0  0  0  0  0  0  0  0  0  0  0
   -4.4152   -4.3090    0.0000 C   0  0  0  0  0  0  0  0  0  0  0  0
   -5.2812   -4.8090    0.0000 C   0  0  0  0  0  0  0  0  0  0  0  0
   -6.1472   -4.3090    0.0000 N   0  0  0  0  0  0  0  0  0  0  0  0
   -7.0132   -4.8090    0.0000 C   0  0  0  0  0  0  0  0  0  0  0  0
   -7.1178   -5.8035    0.0000 N   0  0  0  0  0  0  0  0  0  0  0  0
   -8.0959   -6.0115    0.0000 S   0  0  0  0  0  0  0  0  0  0  0  0
   -8.5959   -5.1454    0.0000 C   0  0  0  0  0  0  0  0  0  0  0  0
   -9.5741   -4.9375    0.0000 C   0  0  0  0  0  0  0  0  0  0  0  0
   -9.8831   -3.9865    0.0000 C   0  0  0  0  0  0  0  0  0  0  0  0
   -9.2139   -3.2433    0.0000 C   0  0  0  0  0  0  0  0  0  0  0  0
   -8.2358   -3.4512    0.0000 C   0  0  0  0  0  0  0  0  0  0  0  0
   -7.9268   -4.4023    0.0000 C   0  0  0  0  0  0  0  0  0  0  0  0
   -6.1472   -3.3090    0.0000 C   0  0  0  0  0  0  0  0  0  0  0  0
   -5.2812   -2.8090    0.0000 C   0  0  0  0  0  0  0  0  0  0  0  0
   -2.6831   -0.3090    0.0000 C   0  0  0  0  0  0  0  0  0  0  0  0
   -3.5491    0.1910    0.0000 Cl  0  0  0  0  0  0  0  0  0  0  0  0
   -1.8171    0.1910    0.0000 C   0  0  0  0  0  0  0  0  0  0  0  0
   -0.9511   -0.3090    0.0000 C   0  0  0  0  0  0  0  0  0  0  0  0
   -0.0000   -0.0000    0.0000 N   0  0  0  0  0  0  0  0  0  0  0  0
  1  2  2  0  0  0  0
  2 28  1  0  0  0  0
  2  3  1  0  0  0  0
  3  4  1  0  0  0  0
  4 27  1  0  0  0  0
  4  5  2  0  0  0  0
  5  6  1  0  0  0  0
  6  7  1  0  0  0  0
  6 24  2  0  0  0  0
  7  8  1  0  0  0  0
  8  9  1  0  0  0  0
  9 23  1  0  0  0  0
  9 10  1  0  0  0  0
 10 11  1  0  0  0  0
 11 12  1  0  0  0  0
 12 13  1  0  0  0  0
 12 22  1  0  0  0  0
 13 21  1  0  0  0  0
 13 14  2  0  0  0  0
 14 15  1  0  0  0  0
 15 16  1  0  0  0  0
 16 21  1  0  0  0  0
 16 17  2  0  0  0  0
 17 18  1  0  0  0  0
 18 19  2  0  0  0  0
 19 20  1  0  0  0  0
 20 21  2  0  0  0  0
 22 23  1  0  0  0  0
 24 25  1  0  0  0  0
 24 26  1  0  0  0  0
 26 27  2  0  0  0  0
 27 28  1  0  0  0  0
M  END
$$$$

 OpenBabel10082008492D

 32 36  0  0  0  0  0  0  0  0999 V2000
    0.8660    1.5000    0.0000 O   0  0  0  0  0  0  0  0  0  0  0  0
    0.8660    0.5000    0.0000 C   0  0  0  0  0  0  0  0  0  0  0  0
    1.7321   -0.0000    0.0000 C   0  0  0  0  0  0  0  0  0  0  0  0
    1.7321   -1.0000    0.0000 C   0  0  0  0  0  0  0  0  0  0  0  0
    0.8660   -1.5000    0.0000 C   0  0  0  0  0  0  0  0  0  0  0  0
    0.8660   -2.5000    0.0000 C   0  0  0  0  0  0  0  0  0  0  0  0
   -0.0000   -3.0000    0.0000 C   0  0  0  0  0  0  0  0  0  0  0  0
   -0.8660   -2.5000    0.0000 C   0  0  0  0  0  0  0  0  0  0  0  0
   -1.7321   -3.0000    0.0000 O   0  0  0  0  0  0  0  0  0  0  0  0
   -1.7321   -4.0000    0.0000 C   0  0  0  0  0  0  0  0  0  0  0  0
   -2.5981   -4.5000    0.0000 C   0  0  0  0  0  0  0  0  0  0  0  0
   -2.5981   -5.5000    0.0000 C   0  0  0  0  0  0  0  0  0  0  0  0
   -3.4641   -6.0000    0.0000 C   0  0  0  0  0  0  0  0  0  0  0  0
   -4.3301   -5.5000    0.0000 N   0  0  0  0  0  0  0  0  0  0  0  0
   -5.1962   -6.0000    0.0000 C   0  0  0  0  0  0  0  0  0  0  0  0
   -6.0622   -5.5000    0.0000 C   0  0  0  0  0  0  0  0  0  0  0  0
   -6.0622   -4.5000    0.0000 N   0  0  0  0  0  0  0  0  0  0  0  0
   -6.9282   -4.0000    0.0000 C   0  0  0  0  0  0  0  0  0  0  0  0
   -7.7942   -4.5000    0.0000 C   0  0  0  0  0  0  0  0  0  0  0  0
   -8.6603   -4.0000    0.0000 C   0  0  0  0  0  0  0  0  0  0  0  0
   -8.6603   -3.0000    0.0000 C   0  0  0  0  0  0  0  0  0  0  0  0
   -7.7942   -2.5000    0.0000 C   0  0  0  0  0  0  0  0  0  0  0  0
   -7.5863   -1.5219    0.0000 S   0  0  0  0  0  0  0  0  0  0  0  0
   -6.5918   -1.4173    0.0000 C   0  0  0  0  0  0  0  0  0  0  0  0
   -6.1851   -2.3309    0.0000 C   0  0  0  0  0  0  0  0  0  0  0  0
   -6.9282   -3.0000    0.0000 C   0  0  0  0  0  0  0  0  0  0  0  0
   -5.1962   -4.0000    0.0000 C   0  0  0  0  0  0  0  0  0  0  0  0
   -4.3301   -4.5000    0.0000 C   0  0  0  0  0  0  0  0  0  0  0  0
   -0.8660   -1.5000    0.0000 C   0  0  0  0  0  0  0  0  0  0  0  0
   -0.0000   -1.0000    0.0000 C   0  0  0  0  0  0  0  0  0  0  0  0
    0.0000   -0.0000    0.0000 N   0  0  0  0  0  0  0  0  0  0  0  0
   -0.8660    0.5000    0.0000 H   0  0  0  0  0  0  0  0  0  0  0  0
  1  2  2  0  0  0  0
  2 31  1  0  0  0  0
  2  3  1  0  0  0  0
  3  4  2  0  0  0  0
  4  5  1  0  0  0  0
  5 30  1  0  0  0  0
  5  6  2  0  0  0  0
  6  7  1  0  0  0  0
  7  8  2  0  0  0  0
  8  9  1  0  0  0  0
  8 29  1  0  0  0  0
  9 10  1  0  0  0  0
 10 11  1  0  0  0  0
 11 12  1  0  0  0  0
 12 13  1  0  0  0  0
 13 14  1  0  0  0  0
 14 28  1  0  0  0  0
 14 15  1  0  0  0  0
 15 16  1  0  0  0  0
 16 17  1  0  0  0  0
 17 18  1  0  0  0  0
 17 27  1  0  0  0  0
 18 26  1  0  0  0  0
 18 19  2  0  0  0  0
 19 20  1  0  0  0  0
 20 21  2  0  0  0  0
 21 22  1  0  0  0  0
 22 26  2  0  0  0  0
 22 23  1  0  0  0  0
 23 24  1  0  0  0  0
 24 25  2  0  0  0  0
 25 26  1  0  0  0  0
 27 28  1  0  0  0  0
 29 30  2  0  0  0  0
 30 31  1  0  0  0  0
 31 32  1  0  0  0  0
M  END
$$$$

 OpenBabel10082008492D

 37 40  0  0  1  0  0  0  0  0999 V2000
    1.7321   -0.0000    0.0000 C   0  0  0  0  0  0  0  0  0  0  0  0
    1.7321   -1.0000    0.0000 C   0  0  0  0  0  0  0  0  0  0  0  0
    2.5981   -1.5000    0.0000 C   0  0  0  0  0  0  0  0  0  0  0  0
    3.4641   -1.0000    0.0000 C   0  0  0  0  0  0  0  0  0  0  0  0
    4.3301   -1.5000    0.0000 O   0  0  0  0  0  0  0  0  0  0  0  0
    3.4641   -0.0000    0.0000 N   0  0  0  0  0  0  0  0  0  0  0  0
    4.3301    0.5000    0.0000 C   0  0  0  0  0  0  0  0  0  0  0  0
    4.3301    1.5000    0.0000 C   0  0  0  0  0  0  0  0  0  0  0  0
    5.1962    2.0000    0.0000 C   0  0  0  0  0  0  0  0  0  0  0  0
    6.0622    1.5000    0.0000 C   0  0  0  0  0  0  0  0  0  0  0  0
    6.9282    2.0000    0.0000 N   0  0  0  0  0  0  0  0  0  0  0  0
    6.9282    3.0000    0.0000 C   0  0  0  0  0  0  0  0  0  0  0  0
    7.7942    3.5000    0.0000 C   0  0  2  0  0  0  0  0  0  0  0  0
    8.2942    4.3660    0.0000 H   0  0  0  0  0  0  0  0  0  0  0  0
    7.2942    4.3660    0.0000 C   0  0  0  0  0  0  0  0  0  0  0  0
    8.6603    3.0000    0.0000 O   0  0  0  0  0  0  0  0  0  0  0  0
    8.6603    2.0000    0.0000 C   0  0  2  0  0  0  0  0  0  0  0  0
    9.1603    1.1340    0.0000 H   0  0  0  0  0  0  0  0  0  0  0  0
    9.6603    2.0000    0.0000 C   0  0  0  0  0  0  0  0  0  0  0  0
    7.7942    1.5000    0.0000 C   0  0  0  0  0  0  0  0  0  0  0  0
    6.0622    0.5000    0.0000 N   0  0  0  0  0  0  0  0  0  0  0  0
    5.1962   -0.0000    0.0000 C   0  0  0  0  0  0  0  0  0  0  0  0
    2.5981   -2.5000    0.0000 C   0  0  0  0  0  0  0  0  0  0  0  0
    1.7321   -3.0000    0.0000 C   0  0  0  0  0  0  0  0  0  0  0  0
    0.8660   -2.5000    0.0000 C   0  0  0  0  0  0  0  0  0  0  0  0
    0.8660   -1.5000    0.0000 C   0  0  0  0  0  0  0  0  0  0  0  0
    0.0000   -1.0000    0.0000 C   0  0  0  0  0  0  0  0  0  0  0  0
   -0.8660   -1.5000    0.0000 C   0  0  0  0  0  0  0  0  0  0  0  0
   -1.7321   -1.0000    0.0000 C   0  0  0  0  0  0  0  0  0  0  0  0
   -1.7321    0.0000    0.0000 C   0  0  0  0  0  0  0  0  0  0  0  0
   -2.5981    0.5000    0.0000 O   0  0  0  0  0  0  0  0  0  0  0  0
   -3.4641    0.0000    0.0000 C   0  0  0  0  0  0  0  0  0  0  0  0
   -3.9641   -0.8660    0.0000 F   0  0  0  0  0  0  0  0  0  0  0  0
   -2.9641   -0.8660    0.0000 F   0  0  0  0  0  0  0  0  0  0  0  0
   -4.3301    0.5000    0.0000 F   0  0  0  0  0  0  0  0  0  0  0  0
   -0.8660    0.5000    0.0000 C   0  0  0  0  0  0  0  0  0  0  0  0
    0.0000   -0.0000    0.0000 C   0  0  0  0  0  0  0  0  0  0  0  0
  1  2  1  0  0  0  0
  2 26  1  0  0  0  0
  2  3  2  0  0  0  0
  3  4  1  0  0  0  0
  3 23  1  0  0  0  0
  4  5  2  0  0  0  0
  4  6  1  0  0  0  0
  6  7  1  0  0  0  0
  7 22  1  0  0  0  0
  7  8  2  0  0  0  0
  8  9  1  0  0  0  0
  9 10  2  0  0  0  0
 10 11  1  0  0  0  0
 10 21  1  0  0  0  0
 11 20  1  0  0  0  0
 11 12  1  0  0  0  0
 12 13  1  0  0  0  0
 13 14  1  1  0  0  0
 13 15  1  0  0  0  0
 13 16  1  0  0  0  0
 16 17  1  0  0  0  0
 17 18  1  1  0  0  0
 17 19  1  0  0  0  0
 17 20  1  0  0  0  0
 21 22  2  0  0  0  0
 23 24  2  0  0  0  0
 24 25  1  0  0  0  0
 25 26  2  0  0  0  0
 26 27  1  0  0  0  0
 27 37  1  0  0  0  0
 27 28  2  0  0  0  0
 28 29  1  0  0  0  0
 29 30  2  0  0  0  0
 30 31  1  0  0  0  0
 30 36  1  0  0  0  0
 31 32  1  0  0  0  0
 32 33  1  0  0  0  0
 32 34  1  0  0  0  0
 32 35  1  0  0  0  0
 36 37  2  0  0  0  0
M  END
$$$$

 OpenBabel10082008492D

 11 13  0  0  1  0  0  0  0  0999 V2000
    2.1844    0.4543    0.0000 N   0  0  0  0  0  0  0  0  0  0  0  0
    1.1852    0.3435    0.0000 C   0  0  3  0  0  0  0  0  0  0  0  0
    1.1852    1.4427    0.0000 C   0  0  0  0  0  0  0  0  0  0  0  0
    0.2926    1.9580    0.0000 C   0  0  3  0  0  0  0  0  0  0  0  0
   -0.5998    1.4427    0.0000 C   0  0  0  0  0  0  0  0  0  0  0  0
   -0.5998    0.4130    0.0000 C   0  0  3  0  0  0  0  0  0  0  0  0
   -0.0312   -0.3428    0.0000 C   0  0  0  0  0  0  0  0  0  0  0  0
    0.8083   -0.0678    0.0000 C   0  0  3  0  0  0  0  0  0  0  0  0
    0.8084    1.0656    0.0000 C   0  0  0  0  0  0  0  0  0  0  0  0
    1.7802   -0.3428    0.0000 C   0  0  0  0  0  0  0  0  0  0  0  0
    0.0000   -0.0000    0.0000 C   0  0  0  0  0  0  0  0  0  0  0  0
  1  2  1  0  0  0  0
  2 10  1  0  0  0  0
  2 11  1  0  0  0  0
  2  3  1  0  0  0  0
  3  4  1  0  0  0  0
  4  9  1  0  0  0  0
  4  5  1  0  0  0  0
  5  6  1  0  0  0  0
  6  7  1  0  0  0  0
  6 11  1  0  0  0  0
  7  8  1  0  0  0  0
  8  9  1  0  0  0  0
  8 10  1  0  0  0  0
M  END
$$$$

 OpenBabel10082008492D

 13 13  0  0  0  0  0  0  0  0999 V2000
   -1.7321   -3.0000    0.0000 N   0  0  0  0  0  0  0  0  0  0  0  0
   -0.8660   -3.5000    0.0000 C   0  0  0  0  0  0  0  0  0  0  0  0
   -0.8660   -4.5000    0.0000 O   0  0  0  0  0  0  0  0  0  0  0  0
   -0.0000   -3.0000    0.0000 N   0  0  0  0  0  0  0  0  0  0  0  0
   -0.0000   -2.0000    0.0000 C   0  0  0  0  0  0  0  0  0  0  0  0
    0.8660   -1.5000    0.0000 O   0  0  0  0  0  0  0  0  0  0  0  0
   -0.8660   -1.5000    0.0000 C   0  0  0  0  0  0  0  0  0  0  0  0
   -0.8660   -0.5000    0.0000 C   0  0  0  0  0  0  0  0  0  0  0  0
   -1.7321   -0.0000    0.0000 C   0  0  0  0  0  0  0  0  0  0  0  0
   -1.7321    1.0000    0.0000 C   0  0  0  0  0  0  0  0  0  0  0  0
   -0.8660    1.5000    0.0000 C   0  0  0  0  0  0  0  0  0  0  0  0
   -0.0000    1.0000    0.0000 C   0  0  0  0  0  0  0  0  0  0  0  0
    0.0000   -0.0000    0.0000 C   0  0  0  0  0  0  0  0  0  0  0  0
  1  2  1  0  0  0  0
  2  3  2  0  0  0  0
  2  4  1  0  0  0  0
  4  5  1  0  0  0  0
  5  6  2  0  0  0  0
  5  7  1  0  0  0  0
  7  8  1  0  0  0  0
  8 13  1  0  0  0  0
  8  9  2  0  0  0  0
  9 10  1  0  0  0  0
 10 11  2  0  0  0  0
 11 12  1  0  0  0  0
 12 13  2  0  0  0  0
M  END
$$$$

 OpenBabel10082008492D

 23 26  0  0  0  0  0  0  0  0999 V2000
    0.4402    1.7075    0.0000 C   0  0  0  0  0  0  0  0  0  0  0  0
    1.4103    1.7073    0.0000 C   0  0  0  0  0  0  0  0  0  0  0  0
    1.9808    2.4920    0.0000 N   0  0  0  0  0  0  0  0  0  0  0  0
    1.6812    3.4148    0.0000 H   0  0  0  0  0  0  0  0  0  0  0  0
    2.9034    2.1920    0.0000 C   0  0  0  0  0  0  0  0  0  0  0  0
    2.9032    1.2218    0.0000 N   0  0  0  0  0  0  0  0  0  0  0  0
    1.9804    0.9222    0.0000 C   0  0  0  0  0  0  0  0  0  0  0  0
    1.6804   -0.0004    0.0000 C   0  0  0  0  0  0  0  0  0  0  0  0
    0.8401   -0.4853    0.0000 N   0  0  0  0  0  0  0  0  0  0  0  0
    0.8399   -1.4561    0.0000 C   0  0  0  0  0  0  0  0  0  0  0  0
   -0.0004   -1.9411    0.0000 C   0  0  0  0  0  0  0  0  0  0  0  0
   -0.8410   -1.4558    0.0000 C   0  0  0  0  0  0  0  0  0  0  0  0
   -0.8408   -0.4850    0.0000 C   0  0  0  0  0  0  0  0  0  0  0  0
   -2.5217   -0.4846    0.0000 C   0  0  0  0  0  0  0  0  0  0  0  0
   -3.3623    0.0007    0.0000 C   0  0  0  0  0  0  0  0  0  0  0  0
   -4.2025   -0.4843    0.0000 C   0  0  0  0  0  0  0  0  0  0  0  0
   -4.2027   -1.4551    0.0000 C   0  0  0  0  0  0  0  0  0  0  0  0
   -3.3626   -1.9404    0.0000 C   0  0  0  0  0  0  0  0  0  0  0  0
   -2.5219   -1.4554    0.0000 C   0  0  0  0  0  0  0  0  0  0  0  0
   -1.6813   -1.9408    0.0000 N   0  0  0  0  0  0  0  0  0  0  0  0
   -1.6815   -2.9408    0.0000 C   0  0  0  0  0  0  0  0  0  0  0  0
    0.0000   -0.0000    0.0000 C   0  0  0  0  0  0  0  0  0  0  0  0
    0.0002    1.0000    0.0000 O   0  0  0  0  0  0  0  0  0  0  0  0
  1  2  1  0  0  0  0
  2  7  2  0  0  0  0
  2  3  1  0  0  0  0
  3  4  1  0  0  0  0
  3  5  1  0  0  0  0
  5  6  2  0  0  0  0
  6  7  1  0  0  0  0
  7  8  1  0  0  0  0
  8  9  1  0  0  0  0
  9 22  1  0  0  0  0
  9 10  1  0  0  0  0
 10 11  1  0  0  0  0
 11 12  1  0  0  0  0
 12 20  1  0  0  0  0
 12 13  2  0  0  0  0
 13 14  1  0  0  0  0
 13 22  1  0  0  0  0
 14 19  1  0  0  0  0
 14 15  2  0  0  0  0
 15 16  1  0  0  0  0
 16 17  2  0  0  0  0
 17 18  1  0  0  0  0
 18 19  2  0  0  0  0
 19 20  1  0  0  0  0
 20 21  1  0  0  0  0
 22 23  2  0  0  0  0
M  END
$$$$

 OpenBabel10082008492D

 33 37  0  0  0  0  0  0  0  0999 V2000
    2.5981   -0.5000    0.0000 C   0  0  0  0  0  0  0  0  0  0  0  0
    1.7321   -0.0000    0.0000 C   0  0  0  0  0  0  0  0  0  0  0  0
    1.7321    1.0000    0.0000 O   0  0  0  0  0  0  0  0  0  0  0  0
    0.8660   -0.5000    0.0000 C   0  0  0  0  0  0  0  0  0  0  0  0
    0.8660   -1.5000    0.0000 C   0  0  0  0  0  0  0  0  0  0  0  0
    1.7321   -2.0000    0.0000 C   0  0  0  0  0  0  0  0  0  0  0  0
   -0.0000   -2.0000    0.0000 C   0  0  0  0  0  0  0  0  0  0  0  0
    0.0000   -3.0000    0.0000 C   0  0  0  0  0  0  0  0  0  0  0  0
   -0.8660   -3.5000    0.0000 N   0  0  0  0  0  0  0  0  0  0  0  0
   -1.7321   -3.0000    0.0000 C   0  0  0  0  0  0  0  0  0  0  0  0
   -2.5981   -3.5000    0.0000 N   0  0  0  0  0  0  0  0  0  0  0  0
   -3.4641   -3.0000    0.0000 C   0  0  0  0  0  0  0  0  0  0  0  0
   -4.3301   -3.5000    0.0000 C   0  0  0  0  0  0  0  0  0  0  0  0
   -5.1962   -3.0000    0.0000 C   0  0  0  0  0  0  0  0  0  0  0  0
   -5.1962   -2.0000    0.0000 C   0  0  0  0  0  0  0  0  0  0  0  0
   -6.0622   -1.5000    0.0000 N   0  0  0  0  0  0  0  0  0  0  0  0
   -6.9282   -2.0000    0.0000 C   0  0  0  0  0  0  0  0  0  0  0  0
   -7.7942   -1.5000    0.0000 C   0  0  0  0  0  0  0  0  0  0  0  0
   -7.7942   -0.5000    0.0000 N   0  0  0  0  0  0  0  0  0  0  0  0
   -6.9282   -0.0000    0.0000 C   0  0  0  0  0  0  0  0  0  0  0  0
   -6.0622   -0.5000    0.0000 C   0  0  0  0  0  0  0  0  0  0  0  0
   -4.3301   -1.5000    0.0000 C   0  0  0  0  0  0  0  0  0  0  0  0
   -3.4641   -2.0000    0.0000 N   0  0  0  0  0  0  0  0  0  0  0  0
   -1.7321   -2.0000    0.0000 N   0  0  0  0  0  0  0  0  0  0  0  0
   -0.8660   -1.5000    0.0000 C   0  0  0  0  0  0  0  0  0  0  0  0
   -0.8660   -0.5000    0.0000 N   0  0  0  0  0  0  0  0  0  0  0  0
   -1.7321    0.0000    0.0000 C   0  0  0  0  0  0  0  0  0  0  0  0
   -2.6456   -0.4067    0.0000 C   0  0  0  0  0  0  0  0  0  0  0  0
   -3.3147    0.3364    0.0000 C   0  0  0  0  0  0  0  0  0  0  0  0
   -2.8147    1.2024    0.0000 C   0  0  0  0  0  0  0  0  0  0  0  0
   -1.8366    0.9945    0.0000 C   0  0  0  0  0  0  0  0  0  0  0  0
    0.0000    0.0000    0.0000 C   0  0  0  0  0  0  0  0  0  0  0  0
    0.0000    1.0000    0.0000 O   0  0  0  0  0  0  0  0  0  0  0  0
  1  2  1  0  0  0  0
  2  3  2  0  0  0  0
  2  4  1  0  0  0  0
  4 32  1  0  0  0  0
  4  5  2  0  0  0  0
  5  6  1  0  0  0  0
  5  7  1  0  0  0  0
  7 25  1  0  0  0  0
  7  8  2  0  0  0  0
  8  9  1  0  0  0  0
  9 10  2  0  0  0  0
 10 11  1  0  0  0  0
 10 24  1  0  0  0  0
 11 12  1  0  0  0  0
 12 23  1  0  0  0  0
 12 13  2  0  0  0  0
 13 14  1  0  0  0  0
 14 15  2  0  0  0  0
 15 16  1  0  0  0  0
 15 22  1  0  0  0  0
 16 21  1  0  0  0  0
 16 17  1  0  0  0  0
 17 18  1  0  0  0  0
 18 19  1  0  0  0  0
 19 20  1  0  0  0  0
 20 21  1  0  0  0  0
 22 23  2  0  0  0  0
 24 25  2  0  0  0  0
 25 26  1  0  0  0  0
 26 27  1  0  0  0  0
 26 32  1  0  0  0  0
 27 31  1  0  0  0  0
 27 28  1  0  0  0  0
 28 29  1  0  0  0  0
 29 30  1  0  0  0  0
 30 31  1  0  0  0  0
 32 33  2  0  0  0  0
M  END
$$$$

 OpenBabel10082008492D

 23 19  0  0  0  0  0  0  0  0999 V2000
    7.4282   -4.5000    0.0000 O   0  0  0  0  0  0  0  0  0  0  0  0
    7.4282   -3.5000    0.0000 C   0  0  0  0  0  0  0  0  0  0  0  0
    8.2942   -3.0000    0.0000 O   0  5  0  0  0  0  0  0  0  0  0  0
    6.5622   -3.0000    0.0000 C   0  0  0  0  0  0  0  0  0  0  0  0
    5.6962   -3.5000    0.0000 N   0  0  0  0  0  0  0  0  0  0  0  0
    4.8301   -3.0000    0.0000 C   0  0  0  0  0  0  0  0  0  0  0  0
    3.9641   -3.5000    0.0000 C   0  0  0  0  0  0  0  0  0  0  0  0
    3.0981   -3.0000    0.0000 N   0  0  0  0  0  0  0  0  0  0  0  0
    3.0981   -2.0000    0.0000 C   0  0  0  0  0  0  0  0  0  0  0  0
    3.9641   -1.5000    0.0000 C   0  0  0  0  0  0  0  0  0  0  0  0
    3.9641   -0.5000    0.0000 O   0  0  0  0  0  0  0  0  0  0  0  0
    4.8301   -2.0000    0.0000 O   0  5  0  0  0  0  0  0  0  0  0  0
    2.2321   -3.5000    0.0000 C   0  0  0  0  0  0  0  0  0  0  0  0
    1.3660   -3.0000    0.0000 C   0  0  0  0  0  0  0  0  0  0  0  0
    1.3660   -2.0000    0.0000 O   0  0  0  0  0  0  0  0  0  0  0  0
    0.5000   -3.5000    0.0000 O   0  5  0  0  0  0  0  0  0  0  0  0
    5.6962   -4.5000    0.0000 C   0  0  0  0  0  0  0  0  0  0  0  0
    4.8301   -5.0000    0.0000 C   0  0  0  0  0  0  0  0  0  0  0  0
    3.9641   -4.5000    0.0000 O   0  0  0  0  0  0  0  0  0  0  0  0
    4.8301   -6.0000    0.0000 O   0  5  0  0  0  0  0  0  0  0  0  0
   -3.2795   -2.2386    0.0000 Ca  0  2  0  0  0 15  0  0  0  0  0  0
    9.2942   -0.5000    0.0000 Na  0  3  0  0  0 15  0  0  0  0  0  0
   10.2942   -0.5000    0.0000 Na  0  3  0  0  0 15  0  0  0  0  0  0
  1  2  2  0  0  0  0
  2  3  1  0  0  0  0
  2  4  1  0  0  0  0
  4  5  1  0  0  0  0
  5  6  1  0  0  0  0
  5 17  1  0  0  0  0
  6  7  1  0  0  0  0
  7  8  1  0  0  0  0
  8  9  1  0  0  0  0
  8 13  1  0  0  0  0
  9 10  1  0  0  0  0
 10 11  2  0  0  0  0
 10 12  1  0  0  0  0
 13 14  1  0  0  0  0
 14 15  2  0  0  0  0
 14 16  1  0  0  0  0
 17 18  1  0  0  0  0
 18 19  2  0  0  0  0
 18 20  1  0  0  0  0
M  CHG  7   3  -1  12  -1  16  -1  20  -1  21   2  22   1  23   1
M  END
$$$$

 OpenBabel10082008492D

 21 23  0  0  1  0  0  0  0  0999 V2000
    1.3625   -1.0056    0.0000 C   0  0  0  0  0  0  0  0  0  0  0  0
    0.3653   -0.9309    0.0000 N   0  0  0  0  0  0  0  0  0  0  0  0
   -0.1347   -1.7969    0.0000 C   0  0  0  0  0  0  0  0  0  0  0  0
    0.4287   -2.6231    0.0000 O   0  0  0  0  0  0  0  0  0  0  0  0
   -1.1235   -1.9459    0.0000 C   0  0  3  0  0  0  0  0  0  0  0  0
   -1.4182   -2.9015    0.0000 O   0  0  0  0  0  0  0  0  0  0  0  0
   -1.8565   -1.2658    0.0000 N   0  0  0  0  0  0  0  0  0  0  0  0
   -1.7818   -0.2686    0.0000 C   0  0  0  0  0  0  0  0  0  0  0  0
   -2.6478    0.2314    0.0000 C   0  0  0  0  0  0  0  0  0  0  0  0
   -3.5139   -0.2686    0.0000 C   0  0  0  0  0  0  0  0  0  0  0  0
   -4.3799    0.2314    0.0000 C   0  0  0  0  0  0  0  0  0  0  0  0
   -4.3799    1.2314    0.0000 C   0  0  0  0  0  0  0  0  0  0  0  0
   -3.5139    1.7314    0.0000 C   0  0  0  0  0  0  0  0  0  0  0  0
   -2.6478    1.2314    0.0000 C   0  0  0  0  0  0  0  0  0  0  0  0
   -0.9556    0.2948    0.0000 C   0  0  0  0  0  0  0  0  0  0  0  0
   -1.1781    1.2697    0.0000 C   0  0  0  0  0  0  0  0  0  0  0  0
   -0.4450    1.9499    0.0000 C   0  0  0  0  0  0  0  0  0  0  0  0
   -0.6676    2.9248    0.0000 Cl  0  0  0  0  0  0  0  0  0  0  0  0
    0.5105    1.6551    0.0000 C   0  0  0  0  0  0  0  0  0  0  0  0
    0.7331    0.6802    0.0000 C   0  0  0  0  0  0  0  0  0  0  0  0
    0.0000    0.0000    0.0000 C   0  0  0  0  0  0  0  0  0  0  0  0
  1  2  1  0  0  0  0
  2 21  1  0  0  0  0
  2  3  1  0  0  0  0
  3  4  2  0  0  0  0
  3  5  1  0  0  0  0
  5  6  1  0  0  0  0
  5  7  1  0  0  0  0
  7  8  2  0  0  0  0
  8  9  1  0  0  0  0
  8 15  1  0  0  0  0
  9 14  1  0  0  0  0
  9 10  2  0  0  0  0
 10 11  1  0  0  0  0
 11 12  2  0  0  0  0
 12 13  1  0  0  0  0
 13 14  2  0  0  0  0
 15 21  1  0  0  0  0
 15 16  2  0  0  0  0
 16 17  1  0  0  0  0
 17 18  1  0  0  0  0
 17 19  2  0  0  0  0
 19 20  1  0  0  0  0
 20 21  2  0  0  0  0
M  END
$$$$

 OpenBabel10082008492D

  9  6  0  0  0  0  0  0  0  0999 V2000
    2.2321   -0.5000    0.0000 C   0  0  0  0  0  0  0  0  0  0  0  0
    1.3660   -1.0000    0.0000 C   0  0  0  0  0  0  0  0  0  0  0  0
    0.5000   -0.5000    0.0000 O   0  0  0  0  0  0  0  0  0  0  0  0
    1.3660   -2.0000    0.0000 O   0  5  0  0  0  0  0  0  0  0  0  0
    4.0981   -2.0000    0.0000 C   0  0  0  0  0  0  0  0  0  0  0  0
    4.0981   -1.0000    0.0000 C   0  0  0  0  0  0  0  0  0  0  0  0
    4.9641   -0.5000    0.0000 O   0  0  0  0  0  0  0  0  0  0  0  0
    3.2321   -0.5000    0.0000 O   0  5  0  0  0  0  0  0  0  0  0  0
   -0.1494   -0.8178    0.0000 Zn  0  2  0  0  0 15  0  0  0  0  0  0
  1  2  1  0  0  0  0
  2  3  2  0  0  0  0
  2  4  1  0  0  0  0
  5  6  1  0  0  0  0
  6  7  2  0  0  0  0
  6  8  1  0  0  0  0
M  CHG  3   4  -1   8  -1   9   2
M  END
$$$$

 OpenBabel10082008492D

  7  7  0  0  0  0  0  0  0  0999 V2000
   -0.8660   -1.5000    0.0000 N   0  0  0  0  0  0  0  0  0  0  0  0
   -0.8660   -0.5000    0.0000 C   0  0  0  0  0  0  0  0  0  0  0  0
   -1.7321   -0.0000    0.0000 C   0  0  0  0  0  0  0  0  0  0  0  0
   -1.7321    1.0000    0.0000 C   0  0  0  0  0  0  0  0  0  0  0  0
   -0.8660    1.5000    0.0000 N   0  0  0  0  0  0  0  0  0  0  0  0
   -0.0000    1.0000    0.0000 C   0  0  0  0  0  0  0  0  0  0  0  0
    0.0000    0.0000    0.0000 C   0  0  0  0  0  0  0  0  0  0  0  0
  1  2  1  0  0  0  0
  2  7  1  0  0  0  0
  2  3  2  0  0  0  0
  3  4  1  0  0  0  0
  4  5  2  0  0  0  0
  5  6  1  0  0  0  0
  6  7  2  0  0  0  0
M  END
$$$$

 OpenBabel10082008492D

 25 28  0  0  1  0  0  0  0  0999 V2000
   -2.3573   -1.5344    0.0000 N   0  0  0  0  0  0  0  0  0  0  0  0
   -1.4438   -1.9411    0.0000 C   0  0  0  0  0  0  0  0  0  0  0  0
   -0.5302   -2.3479    0.0000 C   0  0  0  0  0  0  0  0  0  0  0  0
    0.2788   -1.7601    0.0000 C   0  0  2  0  0  0  0  0  0  0  0  0
    0.8666   -2.5691    0.0000 H   0  0  0  0  0  0  0  0  0  0  0  0
    1.0878   -1.1723    0.0000 C   0  0  0  0  0  0  0  0  0  0  0  0
    1.0878   -0.1723    0.0000 C   0  0  0  0  0  0  0  0  0  0  0  0
    2.0388    0.1367    0.0000 C   0  0  0  0  0  0  0  0  0  0  0  0
    2.6266   -0.6723    0.0000 C   0  0  0  0  0  0  0  0  0  0  0  0
    2.0388   -1.4813    0.0000 C   0  0  0  0  0  0  0  0  0  0  0  0
   -0.3090   -0.9511    0.0000 N   0  0  0  0  0  0  0  0  0  0  0  0
   -1.3090   -0.9511    0.0000 C   0  0  0  0  0  0  0  0  0  0  0  0
   -1.6180   -0.0000    0.0000 C   0  0  0  0  0  0  0  0  0  0  0  0
   -2.5691    0.3090    0.0000 C   0  0  0  0  0  0  0  0  0  0  0  0
   -3.3122   -0.3601    0.0000 N   0  0  0  0  0  0  0  0  0  0  0  0
   -4.2633   -0.0511    0.0000 C   0  0  0  0  0  0  0  0  0  0  0  0
   -4.4712    0.9271    0.0000 N   0  0  0  0  0  0  0  0  0  0  0  0
   -3.7281    1.5962    0.0000 C   0  0  0  0  0  0  0  0  0  0  0  0
   -3.7281    2.5962    0.0000 N   0  0  0  0  0  0  0  0  0  0  0  0
   -4.5371    3.1840    0.0000 H   0  0  0  0  0  0  0  0  0  0  0  0
   -2.7770    2.9052    0.0000 C   0  0  0  0  0  0  0  0  0  0  0  0
   -2.1892    2.0962    0.0000 C   0  0  0  0  0  0  0  0  0  0  0  0
   -2.7770    1.2872    0.0000 C   0  0  0  0  0  0  0  0  0  0  0  0
   -0.8090    0.5878    0.0000 C   0  0  0  0  0  0  0  0  0  0  0  0
    0.0000   -0.0000    0.0000 N   0  0  0  0  0  0  0  0  0  0  0  0
  1  2  3  0  0  0  0
  2  3  1  0  0  0  0
  3  4  1  0  0  0  0
  4  5  1  6  0  0  0
  4  6  1  0  0  0  0
  4 11  1  0  0  0  0
  6 10  1  0  0  0  0
  6  7  1  0  0  0  0
  7  8  1  0  0  0  0
  8  9  1  0  0  0  0
  9 10  1  0  0  0  0
 11 25  1  0  0  0  0
 11 12  1  0  0  0  0
 12 13  2  0  0  0  0
 13 14  1  0  0  0  0
 13 24  1  0  0  0  0
 14 23  1  0  0  0  0
 14 15  2  0  0  0  0
 15 16  1  0  0  0  0
 16 17  2  0  0  0  0
 17 18  1  0  0  0  0
 18 23  2  0  0  0  0
 18 19  1  0  0  0  0
 19 20  1  0  0  0  0
 19 21  1  0  0  0  0
 21 22  2  0  0  0  0
 22 23  1  0  0  0  0
 24 25  2  0  0  0  0
M  END
$$$$

 OpenBabel10082008492D

 21 23  0  0  0  0  0  0  0  0999 V2000
   -4.5747   -0.4266    0.0000 C   0  0  0  0  0  0  0  0  0  0  0  0
   -3.8416   -1.1068    0.0000 N   0  0  0  0  0  0  0  0  0  0  0  0
   -4.0642   -2.0817    0.0000 C   0  0  0  0  0  0  0  0  0  0  0  0
   -2.8861   -0.8120    0.0000 C   0  0  0  0  0  0  0  0  0  0  0  0
   -2.1530   -1.4922    0.0000 C   0  0  0  0  0  0  0  0  0  0  0  0
   -1.1974   -1.1974    0.0000 C   0  0  0  0  0  0  0  0  0  0  0  0
   -0.9749   -0.2225    0.0000 C   0  0  0  0  0  0  0  0  0  0  0  0
   -1.7568    0.4010    0.0000 C   0  0  0  0  0  0  0  0  0  0  0  0
   -2.6228   -0.0990    0.0000 C   0  0  0  0  0  0  0  0  0  0  0  0
   -3.4888    0.4010    0.0000 C   0  0  0  0  0  0  0  0  0  0  0  0
   -3.4888    1.4010    0.0000 C   0  0  0  0  0  0  0  0  0  0  0  0
   -2.6228    1.9010    0.0000 C   0  0  0  0  0  0  0  0  0  0  0  0
   -1.7568    1.4010    0.0000 C   0  0  0  0  0  0  0  0  0  0  0  0
   -0.9749    2.0245    0.0000 C   0  0  0  0  0  0  0  0  0  0  0  0
   -0.0000    1.8019    0.0000 C   0  0  0  0  0  0  0  0  0  0  0  0
    0.4339    0.9010    0.0000 C   0  0  0  0  0  0  0  0  0  0  0  0
    1.4311    0.9757    0.0000 C   0  0  0  0  0  0  0  0  0  0  0  0
    1.9944    0.1495    0.0000 C   0  0  0  0  0  0  0  0  0  0  0  0
    1.5605   -0.7515    0.0000 C   0  0  0  0  0  0  0  0  0  0  0  0
    0.5633   -0.8262    0.0000 C   0  0  0  0  0  0  0  0  0  0  0  0
    0.0000    0.0000    0.0000 C   0  0  0  0  0  0  0  0  0  0  0  0
  1  2  1  0  0  0  0
  2  3  1  0  0  0  0
  2  4  1  0  0  0  0
  4  5  1  0  0  0  0
  5  6  1  0  0  0  0
  6  7  2  0  0  0  0
  7 21  1  0  0  0  0
  7  8  1  0  0  0  0
  8 13  1  0  0  0  0
  8  9  2  0  0  0  0
  9 10  1  0  0  0  0
 10 11  2  0  0  0  0
 11 12  1  0  0  0  0
 12 13  2  0  0  0  0
 13 14  1  0  0  0  0
 14 15  1  0  0  0  0
 15 16  1  0  0  0  0
 16 21  1  0  0  0  0
 16 17  2  0  0  0  0
 17 18  1  0  0  0  0
 18 19  2  0  0  0  0
 19 20  1  0  0  0  0
 20 21  2  0  0  0  0
M  END
$$$$

 OpenBabel10082008492D

 25 27  0  0  1  0  0  0  0  0999 V2000
    5.6261    1.2212    0.0000 C   0  0  0  0  0  0  0  0  0  0  0  0
    4.6750    0.9122    0.0000 N   0  0  0  0  0  0  0  0  0  0  0  0
    4.3660   -0.0388    0.0000 C   0  0  0  0  0  0  0  0  0  0  0  0
    3.3660   -0.0388    0.0000 C   0  0  0  0  0  0  0  0  0  0  0  0
    3.0570    0.9122    0.0000 C   0  0  0  0  0  0  0  0  0  0  0  0
    3.8660    1.5000    0.0000 C   0  0  2  0  0  0  0  0  0  0  0  0
    4.3660    2.3660    0.0000 H   0  0  0  0  0  0  0  0  0  0  0  0
    3.3660    2.3660    0.0000 C   0  0  0  0  0  0  0  0  0  0  0  0
    2.3660    2.3660    0.0000 C   0  0  0  0  0  0  0  0  0  0  0  0
    1.8660    1.5000    0.0000 O   0  0  0  0  0  0  0  0  0  0  0  0
    0.8660    1.5000    0.0000 C   0  0  2  0  0  0  0  0  0  0  0  0
    0.8660    2.5000    0.0000 C   0  0  0  0  0  0  0  0  0  0  0  0
   -0.1340    1.5000    0.0000 C   0  0  0  0  0  0  0  0  0  0  0  0
   -0.6340    0.6340    0.0000 C   0  0  0  0  0  0  0  0  0  0  0  0
   -1.6340    0.6340    0.0000 C   0  0  0  0  0  0  0  0  0  0  0  0
   -2.1340    1.5000    0.0000 C   0  0  0  0  0  0  0  0  0  0  0  0
   -1.6340    2.3660    0.0000 C   0  0  0  0  0  0  0  0  0  0  0  0
   -0.6340    2.3660    0.0000 C   0  0  0  0  0  0  0  0  0  0  0  0
    0.8660    0.5000    0.0000 C   0  0  0  0  0  0  0  0  0  0  0  0
    1.7321    0.0000    0.0000 C   0  0  0  0  0  0  0  0  0  0  0  0
    1.7321   -1.0000    0.0000 C   0  0  0  0  0  0  0  0  0  0  0  0
    0.8660   -1.5000    0.0000 C   0  0  0  0  0  0  0  0  0  0  0  0
    0.8660   -2.5000    0.0000 Cl  0  0  0  0  0  0  0  0  0  0  0  0
    0.0000   -1.0000    0.0000 C   0  0  0  0  0  0  0  0  0  0  0  0
    0.0000   -0.0000    0.0000 C   0  0  0  0  0  0  0  0  0  0  0  0
  1  2  1  0  0  0  0
  2  6  1  0  0  0  0
  2  3  1  0  0  0  0
  3  4  1  0  0  0  0
  4  5  1  0  0  0  0
  5  6  1  0  0  0  0
  6  7  1  1  0  0  0
  6  8  1  0  0  0  0
  8  9  1  0  0  0  0
  9 10  1  0  0  0  0
 11 10  1  1  0  0  0
 11 12  1  0  0  0  0
 11 13  1  0  0  0  0
 11 19  1  0  0  0  0
 13 18  1  0  0  0  0
 13 14  2  0  0  0  0
 14 15  1  0  0  0  0
 15 16  2  0  0  0  0
 16 17  1  0  0  0  0
 17 18  2  0  0  0  0
 19 25  1  0  0  0  0
 19 20  2  0  0  0  0
 20 21  1  0  0  0  0
 21 22  2  0  0  0  0
 22 23  1  0  0  0  0
 22 24  1  0  0  0  0
 24 25  2  0  0  0  0
M  END
$$$$

 OpenBabel10082008492D

 22 23  0  0  0  0  0  0  0  0999 V2000
    0.6198    1.1415    0.0000 C   0  0  0  0  0  0  0  0  0  0  0  0
    0.9781    0.2079    0.0000 C   0  0  0  0  0  0  0  0  0  0  0  0
    1.9644    0.3734    0.0000 C   0  0  0  0  0  0  0  0  0  0  0  0
    1.4781   -0.6581    0.0000 N   0  0  0  0  0  0  0  0  0  0  0  0
    0.8090   -1.4013    0.0000 C   0  0  0  0  0  0  0  0  0  0  0  0
    1.0169   -2.3794    0.0000 O   0  0  0  0  0  0  0  0  0  0  0  0
   -0.1045   -0.9945    0.0000 N   0  0  0  0  0  0  0  0  0  0  0  0
   -0.9706   -1.4945    0.0000 C   0  0  0  0  0  0  0  0  0  0  0  0
   -0.9706   -2.4945    0.0000 C   0  0  0  0  0  0  0  0  0  0  0  0
   -1.8366   -2.9945    0.0000 C   0  0  0  0  0  0  0  0  0  0  0  0
   -2.7026   -2.4945    0.0000 C   0  0  0  0  0  0  0  0  0  0  0  0
   -3.5686   -2.9945    0.0000 N   0  3  0  0  0  0  0  0  0  0  0  0
   -4.4347   -2.4945    0.0000 O   0  0  0  0  0  0  0  0  0  0  0  0
   -3.5686   -3.9945    0.0000 O   0  5  0  0  0  0  0  0  0  0  0  0
   -2.7026   -1.4945    0.0000 C   0  0  0  0  0  0  0  0  0  0  0  0
   -3.5686   -0.9945    0.0000 C   0  0  0  0  0  0  0  0  0  0  0  0
   -4.5686   -0.9945    0.0000 F   0  0  0  0  0  0  0  0  0  0  0  0
   -4.0686   -1.8605    0.0000 F   0  0  0  0  0  0  0  0  0  0  0  0
   -3.5686    0.0055    0.0000 F   0  0  0  0  0  0  0  0  0  0  0  0
   -1.8366   -0.9945    0.0000 C   0  0  0  0  0  0  0  0  0  0  0  0
    0.0000   -0.0000    0.0000 C   0  0  0  0  0  0  0  0  0  0  0  0
   -0.7431    0.6691    0.0000 O   0  0  0  0  0  0  0  0  0  0  0  0
  1  2  1  0  0  0  0
  2 21  1  0  0  0  0
  2  3  1  0  0  0  0
  2  4  1  0  0  0  0
  4  5  1  0  0  0  0
  5  6  2  0  0  0  0
  5  7  1  0  0  0  0
  7  8  1  0  0  0  0
  7 21  1  0  0  0  0
  8 20  1  0  0  0  0
  8  9  2  0  0  0  0
  9 10  1  0  0  0  0
 10 11  2  0  0  0  0
 11 12  1  0  0  0  0
 11 15  1  0  0  0  0
 12 13  2  0  0  0  0
 12 14  1  0  0  0  0
 15 16  1  0  0  0  0
 15 20  2  0  0  0  0
 16 17  1  0  0  0  0
 16 18  1  0  0  0  0
 16 19  1  0  0  0  0
 21 22  2  0  0  0  0
M  CHG  2  12   1  14  -1
M  END
$$$$

 OpenBabel10082008492D

 20 21  0  0  0  0  0  0  0  0999 V2000
    0.8660   -1.5000    0.0000 C   0  0  0  0  0  0  0  0  0  0  0  0
    0.0000   -1.0000    0.0000 C   0  0  0  0  0  0  0  0  0  0  0  0
   -0.8660   -1.5000    0.0000 C   0  0  0  0  0  0  0  0  0  0  0  0
   -1.7321   -1.0000    0.0000 C   0  0  0  0  0  0  0  0  0  0  0  0
   -1.7321   -0.0000    0.0000 C   0  0  0  0  0  0  0  0  0  0  0  0
   -2.5981    0.5000    0.0000 C   0  0  0  0  0  0  0  0  0  0  0  0
   -2.5981    1.5000    0.0000 O   0  0  0  0  0  0  0  0  0  0  0  0
   -3.4641   -0.0000    0.0000 C   0  0  0  0  0  0  0  0  0  0  0  0
   -3.4641   -1.0000    0.0000 C   0  0  0  0  0  0  0  0  0  0  0  0
   -4.3301   -1.5000    0.0000 C   0  0  0  0  0  0  0  0  0  0  0  0
   -4.3301   -2.5000    0.0000 O   0  0  0  0  0  0  0  0  0  0  0  0
   -5.1962   -1.0000    0.0000 C   0  0  0  0  0  0  0  0  0  0  0  0
   -6.0622   -1.5000    0.0000 O   0  0  0  0  0  0  0  0  0  0  0  0
   -5.1962   -0.0000    0.0000 C   0  0  0  0  0  0  0  0  0  0  0  0
   -6.0622    0.5000    0.0000 N   0  3  0  0  0  0  0  0  0  0  0  0
   -6.0622    1.5000    0.0000 O   0  0  0  0  0  0  0  0  0  0  0  0
   -6.9282   -0.0000    0.0000 O   0  5  0  0  0  0  0  0  0  0  0  0
   -4.3301    0.5000    0.0000 C   0  0  0  0  0  0  0  0  0  0  0  0
   -0.8660    0.5000    0.0000 C   0  0  0  0  0  0  0  0  0  0  0  0
   -0.0000   -0.0000    0.0000 C   0  0  0  0  0  0  0  0  0  0  0  0
  1  2  1  0  0  0  0
  2 20  1  0  0  0  0
  2  3  2  0  0  0  0
  3  4  1  0  0  0  0
  4  5  2  0  0  0  0
  5  6  1  0  0  0  0
  5 19  1  0  0  0  0
  6  7  2  0  0  0  0
  6  8  1  0  0  0  0
  8 18  1  0  0  0  0
  8  9  2  0  0  0  0
  9 10  1  0  0  0  0
 10 11  1  0  0  0  0
 10 12  2  0  0  0  0
 12 13  1  0  0  0  0
 12 14  1  0  0  0  0
 14 15  1  0  0  0  0
 14 18  2  0  0  0  0
 15 16  2  0  0  0  0
 15 17  1  0  0  0  0
 19 20  2  0  0  0  0
M  CHG  2  15   1  17  -1
M  END
$$$$

 OpenBabel10082008492D

 40 44  0  0  0  0  0  0  0  0999 V2000
    3.5000    1.5981    0.0000 C   0  0  0  0  0  0  0  0  0  0  0  0
    3.0000    0.7321    0.0000 O   0  0  0  0  0  0  0  0  0  0  0  0
    3.5000   -0.1340    0.0000 C   0  0  0  0  0  0  0  0  0  0  0  0
    4.5000   -0.1340    0.0000 C   0  0  0  0  0  0  0  0  0  0  0  0
    5.0000   -1.0000    0.0000 C   0  0  0  0  0  0  0  0  0  0  0  0
    6.0000   -1.0000    0.0000 N   0  0  0  0  0  0  0  0  0  0  0  0
    6.5000   -0.1340    0.0000 C   0  0  0  0  0  0  0  0  0  0  0  0
    7.5000   -0.1340    0.0000 C   0  0  0  0  0  0  0  0  0  0  0  0
    8.0000   -1.0000    0.0000 C   0  0  0  0  0  0  0  0  0  0  0  0
    9.0000   -1.0000    0.0000 N   0  0  0  0  0  0  0  0  0  0  0  0
    9.5000   -0.1340    0.0000 C   0  0  0  0  0  0  0  0  0  0  0  0
   10.5000   -0.1340    0.0000 C   0  0  0  0  0  0  0  0  0  0  0  0
   11.0000   -1.0000    0.0000 N   0  0  0  0  0  0  0  0  0  0  0  0
   12.0000   -1.0000    0.0000 C   0  0  0  0  0  0  0  0  0  0  0  0
   10.5000   -1.8660    0.0000 C   0  0  0  0  0  0  0  0  0  0  0  0
    9.5000   -1.8660    0.0000 C   0  0  0  0  0  0  0  0  0  0  0  0
    7.5000   -1.8660    0.0000 C   0  0  0  0  0  0  0  0  0  0  0  0
    6.5000   -1.8660    0.0000 C   0  0  0  0  0  0  0  0  0  0  0  0
    4.5000   -1.8660    0.0000 C   0  0  0  0  0  0  0  0  0  0  0  0
    3.5000   -1.8660    0.0000 C   0  0  0  0  0  0  0  0  0  0  0  0
    3.0000   -1.0000    0.0000 C   0  0  0  0  0  0  0  0  0  0  0  0
    2.0000   -1.0000    0.0000 N   0  0  0  0  0  0  0  0  0  0  0  0
    1.5000   -1.8660    0.0000 C   0  0  0  0  0  0  0  0  0  0  0  0
    2.0000   -2.7321    0.0000 N   0  0  0  0  0  0  0  0  0  0  0  0
    1.5000   -3.5981    0.0000 C   0  0  0  0  0  0  0  0  0  0  0  0
    0.5000   -3.5981    0.0000 C   0  0  0  0  0  0  0  0  0  0  0  0
   -0.0000   -4.4641    0.0000 Cl  0  0  0  0  0  0  0  0  0  0  0  0
   -0.0000   -2.7321    0.0000 C   0  0  0  0  0  0  0  0  0  0  0  0
   -1.0000   -2.7321    0.0000 N   0  0  0  0  0  0  0  0  0  0  0  0
   -1.5000   -1.8660    0.0000 C   0  0  0  0  0  0  0  0  0  0  0  0
   -2.5000   -1.8660    0.0000 C   0  0  0  0  0  0  0  0  0  0  0  0
   -3.0000   -1.0000    0.0000 C   0  0  0  0  0  0  0  0  0  0  0  0
   -2.5000   -0.1340    0.0000 C   0  0  0  0  0  0  0  0  0  0  0  0
   -1.5000   -0.1340    0.0000 C   0  0  0  0  0  0  0  0  0  0  0  0
   -1.0000   -1.0000    0.0000 C   0  0  0  0  0  0  0  0  0  0  0  0
    0.0000   -1.0000    0.0000 P   0  0  0  0  0  0  0  0  0  0  0  0
    0.0000   -2.0000    0.0000 C   0  0  0  0  0  0  0  0  0  0  0  0
    1.0000   -1.0000    0.0000 C   0  0  0  0  0  0  0  0  0  0  0  0
    0.0000   -0.0000    0.0000 O   0  0  0  0  0  0  0  0  0  0  0  0
    0.5000   -1.8660    0.0000 N   0  0  0  0  0  0  0  0  0  0  0  0
  1  2  1  0  0  0  0
  2  3  1  0  0  0  0
  3 21  1  0  0  0  0
  3  4  2  0  0  0  0
  4  5  1  0  0  0  0
  5  6  1  0  0  0  0
  5 19  2  0  0  0  0
  6 18  1  0  0  0  0
  6  7  1  0  0  0  0
  7  8  1  0  0  0  0
  8  9  1  0  0  0  0
  9 10  1  0  0  0  0
  9 17  1  0  0  0  0
 10 16  1  0  0  0  0
 10 11  1  0  0  0  0
 11 12  1  0  0  0  0
 12 13  1  0  0  0  0
 13 14  1  0  0  0  0
 13 15  1  0  0  0  0
 15 16  1  0  0  0  0
 17 18  1  0  0  0  0
 19 20  1  0  0  0  0
 20 21  2  0  0  0  0
 21 22  1  0  0  0  0
 22 23  1  0  0  0  0
 23 40  1  0  0  0  0
 23 24  2  0  0  0  0
 24 25  1  0  0  0  0
 25 26  2  0  0  0  0
 26 27  1  0  0  0  0
 26 28  1  0  0  0  0
 28 29  1  0  0  0  0
 28 40  2  0  0  0  0
 29 30  1  0  0  0  0
 30 35  1  0  0  0  0
 30 31  2  0  0  0  0
 31 32  1  0  0  0  0
 32 33  2  0  0  0  0
 33 34  1  0  0  0  0
 34 35  2  0  0  0  0
 35 36  1  0  0  0  0
 36 37  1  0  0  0  0
 36 38  1  0  0  0  0
 36 39  2  0  0  0  0
M  END
$$$$

 OpenBabel10082008492D

 26 29  0  0  1  0  0  0  0  0999 V2000
   -4.0685   -1.5827    0.0000 C   0  0  0  0  0  0  0  0  0  0  0  0
   -3.5685   -2.4487    0.0000 C   0  0  0  0  0  0  0  0  0  0  0  0
   -4.0685   -3.3147    0.0000 O   0  0  0  0  0  0  0  0  0  0  0  0
   -2.5685   -2.4487    0.0000 O   0  0  0  0  0  0  0  0  0  0  0  0
   -2.0685   -1.5827    0.0000 C   0  0  0  0  0  0  0  0  0  0  0  0
   -1.0739   -1.4781    0.0000 C   0  0  0  0  0  0  0  0  0  0  0  0
   -0.8660   -0.5000    0.0000 C   0  0  0  0  0  0  0  0  0  0  0  0
   -1.7321    0.0000    0.0000 C   0  0  0  0  0  0  0  0  0  0  0  0
   -2.4752   -0.6691    0.0000 S   0  0  0  0  0  0  0  0  0  0  0  0
   -1.7321    1.0000    0.0000 C   0  0  0  0  0  0  0  0  0  0  0  0
   -0.8660    1.5000    0.0000 C   0  0  0  0  0  0  0  0  0  0  0  0
    0.0000    1.0000    0.0000 N   0  0  0  0  0  0  0  0  0  0  0  0
    0.8660    1.5000    0.0000 C   0  0  3  0  0  0  0  0  0  0  0  0
    0.8660    2.5000    0.0000 C   0  0  0  0  0  0  0  0  0  0  0  0
    1.7321    3.0000    0.0000 O   0  0  0  0  0  0  0  0  0  0  0  0
    0.0000    3.0000    0.0000 C   0  0  0  0  0  0  0  0  0  0  0  0
   -1.0000    3.0000    0.0000 C   0  0  0  0  0  0  0  0  0  0  0  0
   -0.5000    3.8660    0.0000 C   0  0  0  0  0  0  0  0  0  0  0  0
    1.7321    1.0000    0.0000 C   0  0  0  0  0  0  0  0  0  0  0  0
    2.5981    1.5000    0.0000 C   0  0  0  0  0  0  0  0  0  0  0  0
    3.4641    1.0000    0.0000 C   0  0  0  0  0  0  0  0  0  0  0  0
    3.4641   -0.0000    0.0000 C   0  0  0  0  0  0  0  0  0  0  0  0
    2.5981   -0.5000    0.0000 C   0  0  0  0  0  0  0  0  0  0  0  0
    1.7321   -0.0000    0.0000 C   0  0  0  0  0  0  0  0  0  0  0  0
    0.8660   -0.5000    0.0000 F   0  0  0  0  0  0  0  0  0  0  0  0
    0.0000    0.0000    0.0000 C   0  0  0  0  0  0  0  0  0  0  0  0
  1  2  1  0  0  0  0
  2  3  2  0  0  0  0
  2  4  1  0  0  0  0
  4  5  1  0  0  0  0
  5  9  1  0  0  0  0
  5  6  2  0  0  0  0
  6  7  1  0  0  0  0
  7 26  1  0  0  0  0
  7  8  2  0  0  0  0
  8  9  1  0  0  0  0
  8 10  1  0  0  0  0
 10 11  1  0  0  0  0
 11 12  1  0  0  0  0
 12 13  1  0  0  0  0
 12 26  1  0  0  0  0
 13 14  1  0  0  0  0
 13 19  1  0  0  0  0
 14 15  2  0  0  0  0
 14 16  1  0  0  0  0
 16 18  1  0  0  0  0
 16 17  1  0  0  0  0
 17 18  1  0  0  0  0
 19 24  1  0  0  0  0
 19 20  2  0  0  0  0
 20 21  1  0  0  0  0
 21 22  2  0  0  0  0
 22 23  1  0  0  0  0
 23 24  2  0  0  0  0
 24 25  1  0  0  0  0
M  END
$$$$

 OpenBabel10082008492D

 22 24  0  0  0  0  0  0  0  0999 V2000
   -4.0000   -1.0000    0.0000 N   0  0  0  0  0  0  0  0  0  0  0  0
   -3.0000   -1.0000    0.0000 C   0  0  0  0  0  0  0  0  0  0  0  0
   -2.5000   -0.1340    0.0000 C   0  0  0  0  0  0  0  0  0  0  0  0
   -1.5000   -0.1340    0.0000 C   0  0  0  0  0  0  0  0  0  0  0  0
   -1.0000   -1.0000    0.0000 C   0  0  0  0  0  0  0  0  0  0  0  0
    0.0000   -1.0000    0.0000 S   0  0  0  0  0  0  0  0  0  0  0  0
    0.0000   -2.0000    0.0000 O   0  0  0  0  0  0  0  0  0  0  0  0
    1.0000   -1.0000    0.0000 O   0  0  0  0  0  0  0  0  0  0  0  0
    0.0000   -0.0000    0.0000 N   0  0  0  0  0  0  0  0  0  0  0  0
    0.8660    0.5000    0.0000 C   0  0  0  0  0  0  0  0  0  0  0  0
    0.9706    1.4945    0.0000 C   0  0  0  0  0  0  0  0  0  0  0  0
    1.9487    1.7024    0.0000 C   0  0  0  0  0  0  0  0  0  0  0  0
    2.4487    0.8364    0.0000 N   0  0  0  0  0  0  0  0  0  0  0  0
    1.7796    0.0933    0.0000 N   0  0  0  0  0  0  0  0  0  0  0  0
    1.9875   -0.8849    0.0000 C   0  0  0  0  0  0  0  0  0  0  0  0
    2.9385   -1.1939    0.0000 C   0  0  0  0  0  0  0  0  0  0  0  0
    3.1465   -2.1720    0.0000 C   0  0  0  0  0  0  0  0  0  0  0  0
    2.4033   -2.8412    0.0000 C   0  0  0  0  0  0  0  0  0  0  0  0
    1.4522   -2.5322    0.0000 C   0  0  0  0  0  0  0  0  0  0  0  0
    1.2443   -1.5540    0.0000 C   0  0  0  0  0  0  0  0  0  0  0  0
   -1.5000   -1.8660    0.0000 C   0  0  0  0  0  0  0  0  0  0  0  0
   -2.5000   -1.8660    0.0000 C   0  0  0  0  0  0  0  0  0  0  0  0
  1  2  1  0  0  0  0
  2 22  1  0  0  0  0
  2  3  2  0  0  0  0
  3  4  1  0  0  0  0
  4  5  2  0  0  0  0
  5  6  1  0  0  0  0
  5 21  1  0  0  0  0
  6  7  2  0  0  0  0
  6  8  2  0  0  0  0
  6  9  1  0  0  0  0
  9 10  1  0  0  0  0
 10 14  1  0  0  0  0
 10 11  2  0  0  0  0
 11 12  1  0  0  0  0
 12 13  2  0  0  0  0
 13 14  1  0  0  0  0
 14 15  1  0  0  0  0
 15 20  1  0  0  0  0
 15 16  2  0  0  0  0
 16 17  1  0  0  0  0
 17 18  2  0  0  0  0
 18 19  1  0  0  0  0
 19 20  2  0  0  0  0
 21 22  2  0  0  0  0
M  END
$$$$

 OpenBabel10082008492D

 16 18  0  0  0  0  0  0  0  0999 V2000
    1.5878   -0.8090    0.0000 O   0  0  0  0  0  0  0  0  0  0  0  0
    0.5878   -0.8090    0.0000 C   0  0  0  0  0  0  0  0  0  0  0  0
   -0.0000   -1.6180    0.0000 C   0  0  0  0  0  0  0  0  0  0  0  0
   -0.9511   -1.3090    0.0000 N   0  0  0  0  0  0  0  0  0  0  0  0
   -1.8171   -1.8090    0.0000 C   0  0  0  0  0  0  0  0  0  0  0  0
   -2.6831   -1.3090    0.0000 C   0  0  0  0  0  0  0  0  0  0  0  0
   -2.6831   -0.3090    0.0000 C   0  0  0  0  0  0  0  0  0  0  0  0
   -3.5491    0.1910    0.0000 C   0  0  0  0  0  0  0  0  0  0  0  0
   -4.4152   -0.3090    0.0000 C   0  0  0  0  0  0  0  0  0  0  0  0
   -4.4152   -1.3090    0.0000 C   0  0  0  0  0  0  0  0  0  0  0  0
   -5.2812   -1.8090    0.0000 Cl  0  0  0  0  0  0  0  0  0  0  0  0
   -3.5491   -1.8090    0.0000 C   0  0  0  0  0  0  0  0  0  0  0  0
   -3.5491   -2.8090    0.0000 Cl  0  0  0  0  0  0  0  0  0  0  0  0
   -1.8171    0.1910    0.0000 N   0  0  0  0  0  0  0  0  0  0  0  0
   -0.9511   -0.3090    0.0000 C   0  0  0  0  0  0  0  0  0  0  0  0
   -0.0000   -0.0000    0.0000 N   0  0  0  0  0  0  0  0  0  0  0  0
  1  2  2  0  0  0  0
  2 16  1  0  0  0  0
  2  3  1  0  0  0  0
  3  4  1  0  0  0  0
  4 15  1  0  0  0  0
  4  5  1  0  0  0  0
  5  6  1  0  0  0  0
  6 12  1  0  0  0  0
  6  7  2  0  0  0  0
  7  8  1  0  0  0  0
  7 14  1  0  0  0  0
  8  9  2  0  0  0  0
  9 10  1  0  0  0  0
 10 11  1  0  0  0  0
 10 12  2  0  0  0  0
 12 13  1  0  0  0  0
 14 15  2  0  0  0  0
 15 16  1  0  0  0  0
M  END
$$$$

 OpenBabel10082008492D

 25 26  0  0  1  0  0  0  0  0999 V2000
    0.8660    3.5000    0.0000 N   0  0  0  0  0  0  0  0  0  0  0  0
    0.8660    2.5000    0.0000 C   0  0  1  0  0  0  0  0  0  0  0  0
   -0.1340    2.5000    0.0000 H   0  0  0  0  0  0  0  0  0  0  0  0
    0.8660    1.5000    0.0000 C   0  0  0  0  0  0  0  0  0  0  0  0
    0.0000    1.0000    0.0000 C   0  0  0  0  0  0  0  0  0  0  0  0
   -0.8660    1.5000    0.0000 C   0  0  0  0  0  0  0  0  0  0  0  0
   -1.7321    1.0000    0.0000 C   0  0  0  0  0  0  0  0  0  0  0  0
   -2.5981    1.5000    0.0000 I   0  0  0  0  0  0  0  0  0  0  0  0
   -1.7321    0.0000    0.0000 C   0  0  0  0  0  0  0  0  0  0  0  0
   -2.5981   -0.5000    0.0000 O   0  0  0  0  0  0  0  0  0  0  0  0
   -3.4641    0.0000    0.0000 C   0  0  0  0  0  0  0  0  0  0  0  0
   -3.4641    1.0000    0.0000 C   0  0  0  0  0  0  0  0  0  0  0  0
   -4.3301    1.5000    0.0000 C   0  0  0  0  0  0  0  0  0  0  0  0
   -4.3301    2.5000    0.0000 I   0  0  0  0  0  0  0  0  0  0  0  0
   -5.1962    1.0000    0.0000 C   0  0  0  0  0  0  0  0  0  0  0  0
   -6.0622    1.5000    0.0000 O   0  0  0  0  0  0  0  0  0  0  0  0
   -5.1962    0.0000    0.0000 C   0  0  0  0  0  0  0  0  0  0  0  0
   -6.0622   -0.5000    0.0000 I   0  0  0  0  0  0  0  0  0  0  0  0
   -4.3301   -0.5000    0.0000 C   0  0  0  0  0  0  0  0  0  0  0  0
   -0.8660   -0.5000    0.0000 C   0  0  0  0  0  0  0  0  0  0  0  0
   -0.8660   -1.5000    0.0000 I   0  0  0  0  0  0  0  0  0  0  0  0
    0.0000   -0.0000    0.0000 C   0  0  0  0  0  0  0  0  0  0  0  0
    1.8660    2.5000    0.0000 C   0  0  0  0  0  0  0  0  0  0  0  0
    2.3660    1.6340    0.0000 O   0  0  0  0  0  0  0  0  0  0  0  0
    2.3660    3.3660    0.0000 O   0  0  0  0  0  0  0  0  0  0  0  0
  1  2  1  0  0  0  0
  2  3  1  1  0  0  0
  2  4  1  0  0  0  0
  2 23  1  0  0  0  0
  4  5  1  0  0  0  0
  5 22  1  0  0  0  0
  5  6  2  0  0  0  0
  6  7  1  0  0  0  0
  7  8  1  0  0  0  0
  7  9  2  0  0  0  0
  9 10  1  0  0  0  0
  9 20  1  0  0  0  0
 10 11  1  0  0  0  0
 11 19  1  0  0  0  0
 11 12  2  0  0  0  0
 12 13  1  0  0  0  0
 13 14  1  0  0  0  0
 13 15  2  0  0  0  0
 15 16  1  0  0  0  0
 15 17  1  0  0  0  0
 17 18  1  0  0  0  0
 17 19  2  0  0  0  0
 20 21  1  0  0  0  0
 20 22  2  0  0  0  0
 23 24  2  0  0  0  0
 23 25  1  0  0  0  0
M  END
$$$$

 OpenBabel10082008492D

 21 22  0  0  0  0  0  0  0  0999 V2000
   -1.7321   -2.0000    0.0000 C   0  0  0  0  0  0  0  0  0  0  0  0
   -0.8660   -1.5000    0.0000 O   0  0  0  0  0  0  0  0  0  0  0  0
   -0.8660   -0.5000    0.0000 C   0  0  0  0  0  0  0  0  0  0  0  0
   -1.7321   -0.0000    0.0000 C   0  0  0  0  0  0  0  0  0  0  0  0
   -1.7321    1.0000    0.0000 C   0  0  0  0  0  0  0  0  0  0  0  0
   -0.8660    1.5000    0.0000 C   0  0  0  0  0  0  0  0  0  0  0  0
   -0.8660    2.5000    0.0000 C   0  0  0  0  0  0  0  0  0  0  0  0
   -1.7321    3.0000    0.0000 N   0  0  0  0  0  0  0  0  0  0  0  0
   -1.7321    4.0000    0.0000 C   0  0  0  0  0  0  0  0  0  0  0  0
   -2.5981    4.5000    0.0000 C   0  0  0  0  0  0  0  0  0  0  0  0
   -2.5981    5.5000    0.0000 N   0  0  0  0  0  0  0  0  0  0  0  0
   -1.7321    6.0000    0.0000 C   0  0  0  0  0  0  0  0  0  0  0  0
   -3.4641    6.0000    0.0000 C   0  0  0  0  0  0  0  0  0  0  0  0
   -2.5981    2.5000    0.0000 C   0  0  0  0  0  0  0  0  0  0  0  0
   -2.5981    1.5000    0.0000 C   0  0  0  0  0  0  0  0  0  0  0  0
   -3.4641    1.0000    0.0000 C   0  0  0  0  0  0  0  0  0  0  0  0
   -4.3301    1.5000    0.0000 C   0  0  0  0  0  0  0  0  0  0  0  0
   -4.3301    2.5000    0.0000 C   0  0  0  0  0  0  0  0  0  0  0  0
   -3.4641    3.0000    0.0000 N   0  0  0  0  0  0  0  0  0  0  0  0
   -0.0000    1.0000    0.0000 C   0  0  0  0  0  0  0  0  0  0  0  0
    0.0000    0.0000    0.0000 C   0  0  0  0  0  0  0  0  0  0  0  0
  1  2  1  0  0  0  0
  2  3  1  0  0  0  0
  3 21  1  0  0  0  0
  3  4  2  0  0  0  0
  4  5  1  0  0  0  0
  5  6  2  0  0  0  0
  6  7  1  0  0  0  0
  6 20  1  0  0  0  0
  7  8  1  0  0  0  0
  8  9  1  0  0  0  0
  8 14  1  0  0  0  0
  9 10  1  0  0  0  0
 10 11  1  0  0  0  0
 11 12  1  0  0  0  0
 11 13  1  0  0  0  0
 14 19  1  0  0  0  0
 14 15  2  0  0  0  0
 15 16  1  0  0  0  0
 16 17  2  0  0  0  0
 17 18  1  0  0  0  0
 18 19  2  0  0  0  0
 20 21  2  0  0  0  0
M  END
$$$$

 OpenBabel10082008492D

 23 25  0  0  1  0  0  0  0  0999 V2000
   -2.5981   -2.5000    0.0000 C   0  0  0  0  0  0  0  0  0  0  0  0
   -1.7321   -3.0000    0.0000 C   0  0  0  0  0  0  0  0  0  0  0  0
   -1.7321   -4.0000    0.0000 O   0  0  0  0  0  0  0  0  0  0  0  0
   -0.8660   -2.5000    0.0000 C   0  0  0  0  0  0  0  0  0  0  0  0
   -0.8660   -1.5000    0.0000 C   0  0  3  0  0  0  0  0  0  0  0  0
   -1.7321   -1.0000    0.0000 C   0  0  0  0  0  0  0  0  0  0  0  0
   -1.7321   -0.0000    0.0000 C   0  0  0  0  0  0  0  0  0  0  0  0
   -2.5981    0.5000    0.0000 C   0  0  0  0  0  0  0  0  0  0  0  0
   -3.4641   -0.0000    0.0000 C   0  0  0  0  0  0  0  0  0  0  0  0
   -3.4641   -1.0000    0.0000 C   0  0  0  0  0  0  0  0  0  0  0  0
   -2.5981   -1.5000    0.0000 C   0  0  0  0  0  0  0  0  0  0  0  0
   -0.0000   -1.0000    0.0000 C   0  0  0  0  0  0  0  0  0  0  0  0
    0.8660   -1.5000    0.0000 C   0  0  0  0  0  0  0  0  0  0  0  0
    0.8660   -2.5000    0.0000 O   0  0  0  0  0  0  0  0  0  0  0  0
    1.7321   -1.0000    0.0000 C   0  0  0  0  0  0  0  0  0  0  0  0
    2.5981   -1.5000    0.0000 C   0  0  0  0  0  0  0  0  0  0  0  0
    3.4641   -1.0000    0.0000 C   0  0  0  0  0  0  0  0  0  0  0  0
    3.4641   -0.0000    0.0000 C   0  0  0  0  0  0  0  0  0  0  0  0
    2.5981    0.5000    0.0000 C   0  0  0  0  0  0  0  0  0  0  0  0
    1.7321   -0.0000    0.0000 C   0  0  0  0  0  0  0  0  0  0  0  0
    0.8660    0.5000    0.0000 O   0  0  0  0  0  0  0  0  0  0  0  0
    0.0000   -0.0000    0.0000 C   0  0  0  0  0  0  0  0  0  0  0  0
   -0.8660    0.5000    0.0000 O   0  0  0  0  0  0  0  0  0  0  0  0
  1  2  1  0  0  0  0
  2  3  2  0  0  0  0
  2  4  1  0  0  0  0
  4  5  1  0  0  0  0
  5  6  1  0  0  0  0
  5 12  1  0  0  0  0
  6 11  1  0  0  0  0
  6  7  2  0  0  0  0
  7  8  1  0  0  0  0
  8  9  2  0  0  0  0
  9 10  1  0  0  0  0
 10 11  2  0  0  0  0
 12 22  1  0  0  0  0
 12 13  2  0  0  0  0
 13 14  1  0  0  0  0
 13 15  1  0  0  0  0
 15 20  1  0  0  0  0
 15 16  2  0  0  0  0
 16 17  1  0  0  0  0
 17 18  2  0  0  0  0
 18 19  1  0  0  0  0
 19 20  2  0  0  0  0
 20 21  1  0  0  0  0
 21 22  1  0  0  0  0
 22 23  2  0  0  0  0
M  END
$$$$

 OpenBabel10082008492D

 32 36  0  0  1  0  0  0  0  0999 V2000
   -1.3154   -2.5587    0.0000 O   0  0  0  0  0  0  0  0  0  0  0  0
   -0.9087   -1.6452    0.0000 C   0  0  0  0  0  0  0  0  0  0  0  0
    0.0858   -1.5407    0.0000 O   0  0  0  0  0  0  0  0  0  0  0  0
    0.4926   -0.6271    0.0000 C   0  0  2  0  0  0  0  0  0  0  0  0
   -0.5020   -0.7316    0.0000 H   0  0  0  0  0  0  0  0  0  0  0  0
    0.3640    0.0814    0.0000 C   0  0  0  0  0  0  0  0  0  0  0  0
    0.8378    0.6237    0.0000 C   0  0  2  0  0  0  0  0  0  0  0  0
    0.9042    1.6215    0.0000 H   0  0  0  0  0  0  0  0  0  0  0  0
    0.2500   -0.1853    0.0000 C   0  0  0  0  0  0  0  0  0  0  0  0
    0.8378   -0.9944    0.0000 C   0  0  0  0  0  0  0  0  0  0  0  0
    1.7888   -0.6853    0.0000 C   0  0  2  0  0  0  0  0  0  0  0  0
    2.7583   -0.9305    0.0000 H   0  0  0  0  0  0  0  0  0  0  0  0
    1.1267   -0.9683    0.0000 C   0  0  0  0  0  0  0  0  0  0  0  0
    1.7888    0.3147    0.0000 N   0  3  0  0  0  0  0  0  0  0  0  0
    2.7399    0.0056    0.0000 C   0  0  0  0  0  0  0  0  0  0  0  0
    3.3277    0.8147    0.0000 C   0  0  0  0  0  0  0  0  0  0  0  0
    2.7399    1.6237    0.0000 C   0  0  0  0  0  0  0  0  0  0  0  0
    1.7888    1.3147    0.0000 C   0  0  0  0  0  0  0  0  0  0  0  0
   -1.4965   -0.8362    0.0000 C   0  0  0  0  0  0  0  0  0  0  0  0
   -2.3055   -1.4240    0.0000 O   0  0  0  0  0  0  0  0  0  0  0  0
   -2.0843   -0.0272    0.0000 C   0  0  0  0  0  0  0  0  0  0  0  0
   -1.6775    0.8864    0.0000 C   0  0  0  0  0  0  0  0  0  0  0  0
   -2.2653    1.6954    0.0000 C   0  0  0  0  0  0  0  0  0  0  0  0
   -3.2598    1.5909    0.0000 C   0  0  0  0  0  0  0  0  0  0  0  0
   -3.6666    0.6773    0.0000 C   0  0  0  0  0  0  0  0  0  0  0  0
   -3.0788   -0.1317    0.0000 C   0  0  0  0  0  0  0  0  0  0  0  0
   -0.6875   -0.2484    0.0000 C   0  0  0  0  0  0  0  0  0  0  0  0
    0.2261   -0.6551    0.0000 C   0  0  0  0  0  0  0  0  0  0  0  0
    1.0351   -0.0673    0.0000 C   0  0  0  0  0  0  0  0  0  0  0  0
    0.9306    0.9272    0.0000 C   0  0  0  0  0  0  0  0  0  0  0  0
    0.0170    1.3339    0.0000 C   0  0  0  0  0  0  0  0  0  0  0  0
   -0.7920    0.7461    0.0000 C   0  0  0  0  0  0  0  0  0  0  0  0
  1  2  2  0  0  0  0
  2  3  1  0  0  0  0
  2 19  1  0  0  0  0
  3  4  1  0  0  0  0
  4  5  1  1  0  0  0
  4 13  1  0  0  0  0
  4  6  1  0  0  0  0
  6  7  1  0  0  0  0
  7  8  1  6  0  0  0
  7 14  1  0  0  0  0
  7  9  1  0  0  0  0
  9 10  1  0  0  0  0
 10 11  1  0  0  0  0
 11 12  1  6  0  0  0
 11 13  1  0  0  0  0
 11 14  1  0  0  0  0
 14 18  1  0  0  0  0
 14 15  1  0  0  0  0
 15 16  1  0  0  0  0
 16 17  1  0  0  0  0
 17 18  1  0  0  0  0
 19 20  1  0  0  0  0
 19 21  1  0  0  0  0
 19 27  1  0  0  0  0
 21 26  1  0  0  0  0
 21 22  2  0  0  0  0
 22 23  1  0  0  0  0
 23 24  2  0  0  0  0
 24 25  1  0  0  0  0
 25 26  2  0  0  0  0
 27 32  1  0  0  0  0
 27 28  2  0  0  0  0
 28 29  1  0  0  0  0
 29 30  2  0  0  0  0
 30 31  1  0  0  0  0
 31 32  2  0  0  0  0
M  CHG  1  14   1
M  END
$$$$

 OpenBabel10082008492D

 27 30  0  0  1  0  0  0  0  0999 V2000
   -1.7321   -2.0000    0.0000 C   0  0  0  0  0  0  0  0  0  0  0  0
   -0.8660   -1.5000    0.0000 O   0  0  0  0  0  0  0  0  0  0  0  0
   -0.8660   -0.5000    0.0000 C   0  0  0  0  0  0  0  0  0  0  0  0
   -1.7321   -0.0000    0.0000 C   0  0  0  0  0  0  0  0  0  0  0  0
   -2.5981   -0.5000    0.0000 N   0  0  0  0  0  0  0  0  0  0  0  0
   -2.5981   -1.5000    0.0000 C   0  0  0  0  0  0  0  0  0  0  0  0
   -3.4641   -2.0000    0.0000 C   0  0  0  0  0  0  0  0  0  0  0  0
   -4.3301   -1.5000    0.0000 N   0  0  0  0  0  0  0  0  0  0  0  0
   -4.3301   -0.5000    0.0000 C   0  0  3  0  0  0  0  0  0  0  0  0
   -5.1962   -0.0000    0.0000 C   0  0  0  0  0  0  0  0  0  0  0  0
   -3.4641   -0.0000    0.0000 C   0  0  0  0  0  0  0  0  0  0  0  0
   -1.7321    1.0000    0.0000 C   0  0  0  0  0  0  0  0  0  0  0  0
   -2.5981    1.5000    0.0000 F   0  0  0  0  0  0  0  0  0  0  0  0
   -0.8660    1.5000    0.0000 C   0  0  0  0  0  0  0  0  0  0  0  0
   -0.0000    1.0000    0.0000 C   0  0  0  0  0  0  0  0  0  0  0  0
    0.8660    1.5000    0.0000 C   0  0  0  0  0  0  0  0  0  0  0  0
    0.8660    2.5000    0.0000 O   0  0  0  0  0  0  0  0  0  0  0  0
    1.7321    1.0000    0.0000 C   0  0  0  0  0  0  0  0  0  0  0  0
    2.5981    1.5000    0.0000 C   0  0  0  0  0  0  0  0  0  0  0  0
    3.4641    1.0000    0.0000 O   0  0  0  0  0  0  0  0  0  0  0  0
    2.5981    2.5000    0.0000 O   0  0  0  0  0  0  0  0  0  0  0  0
    1.7321    0.0000    0.0000 C   0  0  0  0  0  0  0  0  0  0  0  0
    0.8660   -0.5000    0.0000 N   0  0  0  0  0  0  0  0  0  0  0  0
    0.8660   -1.5000    0.0000 C   0  0  0  0  0  0  0  0  0  0  0  0
    1.3660   -2.3660    0.0000 C   0  0  0  0  0  0  0  0  0  0  0  0
    0.3660   -2.3660    0.0000 C   0  0  0  0  0  0  0  0  0  0  0  0
   -0.0000   -0.0000    0.0000 C   0  0  0  0  0  0  0  0  0  0  0  0
  1  2  1  0  0  0  0
  2  3  1  0  0  0  0
  3 27  1  0  0  0  0
  3  4  2  0  0  0  0
  4  5  1  0  0  0  0
  4 12  1  0  0  0  0
  5 11  1  0  0  0  0
  5  6  1  0  0  0  0
  6  7  1  0  0  0  0
  7  8  1  0  0  0  0
  8  9  1  0  0  0  0
  9 10  1  0  0  0  0
  9 11  1  0  0  0  0
 12 13  1  0  0  0  0
 12 14  2  0  0  0  0
 14 15  1  0  0  0  0
 15 27  2  0  0  0  0
 15 16  1  0  0  0  0
 16 17  2  0  0  0  0
 16 18  1  0  0  0  0
 18 19  1  0  0  0  0
 18 22  2  0  0  0  0
 19 20  2  0  0  0  0
 19 21  1  0  0  0  0
 22 23  1  0  0  0  0
 23 24  1  0  0  0  0
 23 27  1  0  0  0  0
 24 26  1  0  0  0  0
 24 25  1  0  0  0  0
 25 26  1  0  0  0  0
M  END
$$$$

 OpenBabel10082008492D

 33 36  0  0  0  0  0  0  0  0999 V2000
  -11.0109   -3.9345    0.0000 C   0  0  0  0  0  0  0  0  0  0  0  0
  -10.1449   -4.4345    0.0000 C   0  0  0  0  0  0  0  0  0  0  0  0
  -10.1449   -5.4345    0.0000 C   0  0  0  0  0  0  0  0  0  0  0  0
   -9.2788   -3.9345    0.0000 N   0  0  0  0  0  0  0  0  0  0  0  0
   -9.2788   -2.9345    0.0000 C   0  0  0  0  0  0  0  0  0  0  0  0
  -10.1449   -2.4345    0.0000 C   0  0  0  0  0  0  0  0  0  0  0  0
  -10.1449   -1.4345    0.0000 C   0  0  0  0  0  0  0  0  0  0  0  0
   -9.2788   -0.9345    0.0000 C   0  0  0  0  0  0  0  0  0  0  0  0
   -8.4128   -1.4345    0.0000 N   0  0  0  0  0  0  0  0  0  0  0  0
   -8.4128   -2.4345    0.0000 C   0  0  0  0  0  0  0  0  0  0  0  0
   -7.5468   -2.9345    0.0000 N   0  0  0  0  0  0  0  0  0  0  0  0
   -6.6808   -2.4345    0.0000 C   0  0  0  0  0  0  0  0  0  0  0  0
   -5.8147   -2.9345    0.0000 C   0  0  0  0  0  0  0  0  0  0  0  0
   -5.8147   -3.9345    0.0000 N   0  0  0  0  0  0  0  0  0  0  0  0
   -4.9487   -4.4345    0.0000 C   0  0  0  0  0  0  0  0  0  0  0  0
   -4.9487   -5.4345    0.0000 O   0  0  0  0  0  0  0  0  0  0  0  0
   -4.0827   -3.9345    0.0000 C   0  0  0  0  0  0  0  0  0  0  0  0
   -3.9781   -2.9400    0.0000 C   0  0  0  0  0  0  0  0  0  0  0  0
   -3.0000   -2.7321    0.0000 C   0  0  0  0  0  0  0  0  0  0  0  0
   -2.5000   -1.8660    0.0000 C   0  0  0  0  0  0  0  0  0  0  0  0
   -1.5000   -1.8660    0.0000 C   0  0  0  0  0  0  0  0  0  0  0  0
   -1.0000   -1.0000    0.0000 N   0  0  0  0  0  0  0  0  0  0  0  0
    0.0000   -1.0000    0.0000 S   0  0  0  0  0  0  0  0  0  0  0  0
   -0.0000   -2.0000    0.0000 C   0  0  0  0  0  0  0  0  0  0  0  0
    1.0000   -1.0000    0.0000 O   0  0  0  0  0  0  0  0  0  0  0  0
    0.0000   -0.0000    0.0000 O   0  0  0  0  0  0  0  0  0  0  0  0
   -1.0000   -2.7321    0.0000 C   0  0  0  0  0  0  0  0  0  0  0  0
   -1.5000   -3.5981    0.0000 C   0  0  0  0  0  0  0  0  0  0  0  0
   -2.5000   -3.5981    0.0000 C   0  0  0  0  0  0  0  0  0  0  0  0
   -3.1691   -4.3412    0.0000 N   0  0  0  0  0  0  0  0  0  0  0  0
   -2.9612   -5.3194    0.0000 H   0  0  0  0  0  0  0  0  0  0  0  0
   -6.6808   -4.4345    0.0000 C   0  0  0  0  0  0  0  0  0  0  0  0
   -7.5468   -3.9345    0.0000 C   0  0  0  0  0  0  0  0  0  0  0  0
  1  2  1  0  0  0  0
  2  3  1  0  0  0  0
  2  4  1  0  0  0  0
  4  5  1  0  0  0  0
  5 10  1  0  0  0  0
  5  6  2  0  0  0  0
  6  7  1  0  0  0  0
  7  8  2  0  0  0  0
  8  9  1  0  0  0  0
  9 10  2  0  0  0  0
 10 11  1  0  0  0  0
 11 33  1  0  0  0  0
 11 12  1  0  0  0  0
 12 13  1  0  0  0  0
 13 14  1  0  0  0  0
 14 15  1  0  0  0  0
 14 32  1  0  0  0  0
 15 16  2  0  0  0  0
 15 17  1  0  0  0  0
 17 30  1  0  0  0  0
 17 18  2  0  0  0  0
 18 19  1  0  0  0  0
 19 29  1  0  0  0  0
 19 20  2  0  0  0  0
 20 21  1  0  0  0  0
 21 22  1  0  0  0  0
 21 27  2  0  0  0  0
 22 23  1  0  0  0  0
 23 24  1  0  0  0  0
 23 25  2  0  0  0  0
 23 26  2  0  0  0  0
 27 28  1  0  0  0  0
 28 29  2  0  0  0  0
 29 30  1  0  0  0  0
 30 31  1  0  0  0  0
 32 33  1  0  0  0  0
M  END
$$$$

 OpenBabel10082008492D

 29 30  0  0  1  0  0  0  0  0999 V2000
  -10.5000   -3.5981    0.0000 C   0  0  0  0  0  0  0  0  0  0  0  0
  -10.0000   -4.4641    0.0000 C   0  0  0  0  0  0  0  0  0  0  0  0
   -9.0000   -4.4641    0.0000 O   0  0  0  0  0  0  0  0  0  0  0  0
   -8.5000   -3.5981    0.0000 C   0  0  0  0  0  0  0  0  0  0  0  0
   -9.0000   -2.7321    0.0000 C   0  0  0  0  0  0  0  0  0  0  0  0
   -8.5000   -1.8660    0.0000 C   0  0  0  0  0  0  0  0  0  0  0  0
   -7.5000   -1.8660    0.0000 C   0  0  0  0  0  0  0  0  0  0  0  0
   -7.0000   -2.7321    0.0000 C   0  0  0  0  0  0  0  0  0  0  0  0
   -7.5000   -3.5981    0.0000 C   0  0  0  0  0  0  0  0  0  0  0  0
   -7.0000   -4.4641    0.0000 O   0  0  0  0  0  0  0  0  0  0  0  0
   -6.0000   -4.4641    0.0000 C   0  0  0  0  0  0  0  0  0  0  0  0
   -5.5000   -3.5981    0.0000 C   0  0  0  0  0  0  0  0  0  0  0  0
   -4.5000   -3.5981    0.0000 N   0  0  0  0  0  0  0  0  0  0  0  0
   -4.0000   -2.7321    0.0000 C   0  0  2  0  0  0  0  0  0  0  0  0
   -4.0000   -1.7321    0.0000 H   0  0  0  0  0  0  0  0  0  0  0  0
   -4.8660   -2.2321    0.0000 C   0  0  0  0  0  0  0  0  0  0  0  0
   -3.0000   -2.7321    0.0000 C   0  0  0  0  0  0  0  0  0  0  0  0
   -2.5000   -1.8660    0.0000 C   0  0  0  0  0  0  0  0  0  0  0  0
   -3.0000   -1.0000    0.0000 C   0  0  0  0  0  0  0  0  0  0  0  0
   -2.5000   -0.1340    0.0000 C   0  0  0  0  0  0  0  0  0  0  0  0
   -1.5000   -0.1340    0.0000 C   0  0  0  0  0  0  0  0  0  0  0  0
   -1.0000    0.7321    0.0000 O   0  0  0  0  0  0  0  0  0  0  0  0
    0.0000    0.7321    0.0000 C   0  0  0  0  0  0  0  0  0  0  0  0
   -1.0000   -1.0000    0.0000 C   0  0  0  0  0  0  0  0  0  0  0  0
   -0.0000   -1.0000    0.0000 S   0  0  0  0  0  0  0  0  0  0  0  0
   -0.0000   -2.0000    0.0000 N   0  0  0  0  0  0  0  0  0  0  0  0
    1.0000   -1.0000    0.0000 O   0  0  0  0  0  0  0  0  0  0  0  0
    0.0000   -0.0000    0.0000 O   0  0  0  0  0  0  0  0  0  0  0  0
   -1.5000   -1.8660    0.0000 C   0  0  0  0  0  0  0  0  0  0  0  0
  1  2  1  0  0  0  0
  2  3  1  0  0  0  0
  3  4  1  0  0  0  0
  4  9  1  0  0  0  0
  4  5  2  0  0  0  0
  5  6  1  0  0  0  0
  6  7  2  0  0  0  0
  7  8  1  0  0  0  0
  8  9  2  0  0  0  0
  9 10  1  0  0  0  0
 10 11  1  0  0  0  0
 11 12  1  0  0  0  0
 12 13  1  0  0  0  0
 13 14  1  0  0  0  0
 14 15  1  1  0  0  0
 14 16  1  0  0  0  0
 14 17  1  0  0  0  0
 17 18  1  0  0  0  0
 18 29  1  0  0  0  0
 18 19  2  0  0  0  0
 19 20  1  0  0  0  0
 20 21  2  0  0  0  0
 21 22  1  0  0  0  0
 21 24  1  0  0  0  0
 22 23  1  0  0  0  0
 24 25  1  0  0  0  0
 24 29  2  0  0  0  0
 25 26  1  0  0  0  0
 25 27  2  0  0  0  0
 25 28  2  0  0  0  0
M  END
$$$$

 OpenBabel10082008492D

 30 33  0  0  0  0  0  0  0  0999 V2000
    2.2321    0.8660    0.0000 F   0  0  0  0  0  0  0  0  0  0  0  0
    1.7321   -0.0000    0.0000 C   0  0  0  0  0  0  0  0  0  0  0  0
    1.2321    0.8660    0.0000 F   0  0  0  0  0  0  0  0  0  0  0  0
    2.5981   -0.5000    0.0000 F   0  0  0  0  0  0  0  0  0  0  0  0
    0.8660   -0.5000    0.0000 C   0  0  0  0  0  0  0  0  0  0  0  0
    0.8660   -1.5000    0.0000 C   0  0  0  0  0  0  0  0  0  0  0  0
    0.0000   -2.0000    0.0000 C   0  0  0  0  0  0  0  0  0  0  0  0
   -0.8660   -1.5000    0.0000 C   0  0  0  0  0  0  0  0  0  0  0  0
   -1.7321   -2.0000    0.0000 C   0  0  0  0  0  0  0  0  0  0  0  0
   -2.5981   -1.5000    0.0000 N   0  0  0  0  0  0  0  0  0  0  0  0
   -3.4641   -2.0000    0.0000 C   0  0  0  0  0  0  0  0  0  0  0  0
   -3.4641   -3.0000    0.0000 C   0  0  0  0  0  0  0  0  0  0  0  0
   -4.3301   -3.5000    0.0000 C   0  0  0  0  0  0  0  0  0  0  0  0
   -5.1962   -3.0000    0.0000 C   0  0  0  0  0  0  0  0  0  0  0  0
   -6.0622   -3.5000    0.0000 C   0  0  0  0  0  0  0  0  0  0  0  0
   -6.9282   -3.0000    0.0000 C   0  0  0  0  0  0  0  0  0  0  0  0
   -7.8417   -3.4067    0.0000 C   0  0  0  0  0  0  0  0  0  0  0  0
   -8.5109   -2.6636    0.0000 N   0  0  0  0  0  0  0  0  0  0  0  0
   -9.5054   -2.7681    0.0000 H   0  0  0  0  0  0  0  0  0  0  0  0
   -8.0109   -1.7976    0.0000 C   0  0  0  0  0  0  0  0  0  0  0  0
   -8.3199   -0.8465    0.0000 N   0  0  0  0  0  0  0  0  0  0  0  0
   -7.6508   -0.1034    0.0000 C   0  0  0  0  0  0  0  0  0  0  0  0
   -6.6726   -0.3113    0.0000 C   0  0  0  0  0  0  0  0  0  0  0  0
   -6.0035    0.4319    0.0000 Cl  0  0  0  0  0  0  0  0  0  0  0  0
   -6.3636   -1.2623    0.0000 C   0  0  0  0  0  0  0  0  0  0  0  0
   -7.0327   -2.0055    0.0000 C   0  0  0  0  0  0  0  0  0  0  0  0
   -5.1962   -2.0000    0.0000 C   0  0  0  0  0  0  0  0  0  0  0  0
   -4.3301   -1.5000    0.0000 N   0  0  0  0  0  0  0  0  0  0  0  0
   -0.8660   -0.5000    0.0000 C   0  0  0  0  0  0  0  0  0  0  0  0
    0.0000    0.0000    0.0000 N   0  0  0  0  0  0  0  0  0  0  0  0
  1  2  1  0  0  0  0
  2  3  1  0  0  0  0
  2  4  1  0  0  0  0
  2  5  1  0  0  0  0
  5 30  1  0  0  0  0
  5  6  2  0  0  0  0
  6  7  1  0  0  0  0
  7  8  2  0  0  0  0
  8  9  1  0  0  0  0
  8 29  1  0  0  0  0
  9 10  1  0  0  0  0
 10 11  1  0  0  0  0
 11 28  1  0  0  0  0
 11 12  2  0  0  0  0
 12 13  1  0  0  0  0
 13 14  2  0  0  0  0
 14 15  1  0  0  0  0
 14 27  1  0  0  0  0
 15 16  1  0  0  0  0
 16 26  1  0  0  0  0
 16 17  2  0  0  0  0
 17 18  1  0  0  0  0
 18 19  1  0  0  0  0
 18 20  1  0  0  0  0
 20 26  1  0  0  0  0
 20 21  2  0  0  0  0
 21 22  1  0  0  0  0
 22 23  2  0  0  0  0
 23 24  1  0  0  0  0
 23 25  1  0  0  0  0
 25 26  2  0  0  0  0
 27 28  2  0  0  0  0
 29 30  2  0  0  0  0
M  END
$$$$

 OpenBabel10082008492D

 32 37  0  0  1  0  0  0  0  0999 V2000
    0.8011    1.3875    0.0000 C   0  0  0  0  0  0  0  0  0  0  0  0
    0.0000    0.9250    0.0000 N   0  0  0  0  0  0  0  0  0  0  0  0
   -0.8011    1.3875    0.0000 C   0  0  0  0  0  0  0  0  0  0  0  0
   -1.6021    0.9250    0.0000 C   0  0  0  0  0  0  0  0  0  0  0  0
   -2.4032    1.3875    0.0000 O   0  0  0  0  0  0  0  0  0  0  0  0
   -1.6021    0.0000    0.0000 N   0  0  0  0  0  0  0  0  0  0  0  0
   -0.8011   -0.4625    0.0000 C   0  0  2  0  0  0  0  0  0  0  0  0
   -0.0000   -0.9250    0.0000 H   0  0  0  0  0  0  0  0  0  0  0  0
   -0.8011   -1.3875    0.0000 C   0  0  0  0  0  0  0  0  0  0  0  0
   -1.6021   -1.8500    0.0000 C   0  0  0  0  0  0  0  0  0  0  0  0
   -2.4032   -1.3875    0.0000 C   0  0  0  0  0  0  0  0  0  0  0  0
   -3.0906   -2.0064    0.0000 N   0  0  0  0  0  0  0  0  0  0  0  0
   -3.9954   -1.8141    0.0000 H   0  0  0  0  0  0  0  0  0  0  0  0
   -2.7144   -2.8515    0.0000 C   0  0  0  0  0  0  0  0  0  0  0  0
   -3.0906   -3.6965    0.0000 C   0  0  0  0  0  0  0  0  0  0  0  0
   -2.5469   -4.4448    0.0000 C   0  0  0  0  0  0  0  0  0  0  0  0
   -1.6270   -4.3482    0.0000 C   0  0  0  0  0  0  0  0  0  0  0  0
   -1.2508   -3.5031    0.0000 C   0  0  0  0  0  0  0  0  0  0  0  0
   -1.7945   -2.7548    0.0000 C   0  0  0  0  0  0  0  0  0  0  0  0
   -2.4032   -0.4625    0.0000 C   0  0  1  0  0  0  0  0  0  0  0  0
   -2.2825    0.4546    0.0000 H   0  0  0  0  0  0  0  0  0  0  0  0
   -5.9771   -1.4201    0.0000 C   0  0  0  0  0  0  0  0  0  0  0  0
   -6.6312   -0.7661    0.0000 C   0  0  0  0  0  0  0  0  0  0  0  0
   -7.5247   -1.0055    0.0000 C   0  0  0  0  0  0  0  0  0  0  0  0
   -7.7641   -1.8989    0.0000 C   0  0  0  0  0  0  0  0  0  0  0  0
   -7.1100   -2.5530    0.0000 C   0  0  0  0  0  0  0  0  0  0  0  0
   -6.2166   -2.3136    0.0000 C   0  0  0  0  0  0  0  0  0  0  0  0
   -7.5300   -3.3772    0.0000 O   0  0  0  0  0  0  0  0  0  0  0  0
   -8.4436   -3.2325    0.0000 C   0  0  0  0  0  0  0  0  0  0  0  0
   -8.5883   -2.3189    0.0000 O   0  0  0  0  0  0  0  0  0  0  0  0
    0.0000   -0.0000    0.0000 C   0  0  0  0  0  0  0  0  0  0  0  0
    0.8011   -0.4625    0.0000 O   0  0  0  0  0  0  0  0  0  0  0  0
  1  2  1  0  0  0  0
  2 31  1  0  0  0  0
  2  3  1  0  0  0  0
  3  4  1  0  0  0  0
  4  5  2  0  0  0  0
  4  6  1  0  0  0  0
  6 20  1  0  0  0  0
  6  7  1  0  0  0  0
  7  8  1  6  0  0  0
  7  9  1  0  0  0  0
  7 31  1  0  0  0  0
  9 10  1  0  0  0  0
 10 19  1  0  0  0  0
 10 11  2  0  0  0  0
 11 12  1  0  0  0  0
 11 20  1  0  0  0  0
 12 13  1  0  0  0  0
 12 14  1  0  0  0  0
 14 19  1  0  0  0  0
 14 15  2  0  0  0  0
 15 16  1  0  0  0  0
 16 17  2  0  0  0  0
 17 18  1  0  0  0  0
 18 19  2  0  0  0  0
 20 21  1  6  0  0  0
 20 22  1  0  0  0  0
 22 27  1  0  0  0  0
 22 23  2  0  0  0  0
 23 24  1  0  0  0  0
 24 25  2  0  0  0  0
 25 30  1  0  0  0  0
 25 26  1  0  0  0  0
 26 27  2  0  0  0  0
 26 28  1  0  0  0  0
 28 29  1  0  0  0  0
 29 30  1  0  0  0  0
 31 32  2  0  0  0  0
M  END
$$$$

 OpenBabel10082008492D

 11 11  0  0  0  0  0  0  0  0999 V2000
   -1.7321   -2.0000    0.0000 C   0  0  0  0  0  0  0  0  0  0  0  0
   -0.8660   -1.5000    0.0000 C   0  0  0  0  0  0  0  0  0  0  0  0
   -0.8660   -0.5000    0.0000 C   0  0  0  0  0  0  0  0  0  0  0  0
   -1.7321   -0.0000    0.0000 C   0  0  0  0  0  0  0  0  0  0  0  0
   -1.7321    1.0000    0.0000 C   0  0  0  0  0  0  0  0  0  0  0  0
   -2.5981    1.5000    0.0000 C   0  0  0  0  0  0  0  0  0  0  0  0
   -2.5981    2.5000    0.0000 N   0  0  0  0  0  0  0  0  0  0  0  0
   -3.4641    1.0000    0.0000 S   0  0  0  0  0  0  0  0  0  0  0  0
   -0.8660    1.5000    0.0000 C   0  0  0  0  0  0  0  0  0  0  0  0
   -0.0000    1.0000    0.0000 C   0  0  0  0  0  0  0  0  0  0  0  0
    0.0000    0.0000    0.0000 N   0  0  0  0  0  0  0  0  0  0  0  0
  1  2  1  0  0  0  0
  2  3  1  0  0  0  0
  3 11  1  0  0  0  0
  3  4  2  0  0  0  0
  4  5  1  0  0  0  0
  5  6  1  0  0  0  0
  5  9  2  0  0  0  0
  6  7  1  0  0  0  0
  6  8  2  0  0  0  0
  9 10  1  0  0  0  0
 10 11  2  0  0  0  0
M  END
$$$$

 OpenBabel10082008492D

 12 12  0  0  1  0  0  0  0  0999 V2000
    2.5981    3.5000    0.0000 C   0  0  0  0  0  0  0  0  0  0  0  0
    1.7321    3.0000    0.0000 N   0  0  0  0  0  0  0  0  0  0  0  0
    1.7321    2.0000    0.0000 C   0  0  1  0  0  0  0  0  0  0  0  0
    2.2321    1.1340    0.0000 H   0  0  0  0  0  0  0  0  0  0  0  0
    2.7321    2.0000    0.0000 C   0  0  0  0  0  0  0  0  0  0  0  0
    0.8660    1.5000    0.0000 C   0  0  0  0  0  0  0  0  0  0  0  0
    0.8660    0.5000    0.0000 C   0  0  0  0  0  0  0  0  0  0  0  0
    1.7321    0.0000    0.0000 C   0  0  0  0  0  0  0  0  0  0  0  0
    1.7321   -1.0000    0.0000 C   0  0  0  0  0  0  0  0  0  0  0  0
    0.8660   -1.5000    0.0000 C   0  0  0  0  0  0  0  0  0  0  0  0
    0.0000   -1.0000    0.0000 C   0  0  0  0  0  0  0  0  0  0  0  0
    0.0000   -0.0000    0.0000 C   0  0  0  0  0  0  0  0  0  0  0  0
  1  2  1  0  0  0  0
  2  3  1  0  0  0  0
  3  4  1  6  0  0  0
  3  5  1  0  0  0  0
  3  6  1  0  0  0  0
  6  7  1  0  0  0  0
  7 12  1  0  0  0  0
  7  8  2  0  0  0  0
  8  9  1  0  0  0  0
  9 10  2  0  0  0  0
 10 11  1  0  0  0  0
 11 12  2  0  0  0  0
M  END
$$$$

 OpenBabel10082008492D

 34 36  0  0  1  0  0  0  0  0999 V2000
   -1.4595    2.5279    0.0000 C   0  0  0  0  0  0  0  0  0  0  0  0
   -1.9459    1.6852    0.0000 C   0  0  0  0  0  0  0  0  0  0  0  0
   -1.4595    0.8426    0.0000 O   0  0  0  0  0  0  0  0  0  0  0  0
   -0.4865    0.8426    0.0000 C   0  0  0  0  0  0  0  0  0  0  0  0
    0.0000    1.6852    0.0000 C   0  0  0  0  0  0  0  0  0  0  0  0
    0.9730    1.6852    0.0000 C   0  0  0  0  0  0  0  0  0  0  0  0
    1.4595    2.5279    0.0000 C   0  0  0  0  0  0  0  0  0  0  0  0
    2.4324    2.5279    0.0000 C   0  0  0  0  0  0  0  0  0  0  0  0
    2.9189    1.6852    0.0000 O   0  0  0  0  0  0  0  0  0  0  0  0
    2.9189    3.3705    0.0000 N   0  0  0  0  0  0  0  0  0  0  0  0
    3.8919    3.3705    0.0000 C   0  0  1  0  0  0  0  0  0  0  0  0
    3.8919    2.3975    0.0000 H   0  0  0  0  0  0  0  0  0  0  0  0
    4.8649    3.3705    0.0000 C   0  0  0  0  0  0  0  0  0  0  0  0
    5.8378    1.6852    0.0000 C   0  0  0  0  0  0  0  0  0  0  0  0
    5.3514    0.8426    0.0000 C   0  0  0  0  0  0  0  0  0  0  0  0
    6.8108    1.6852    0.0000 C   0  0  0  0  0  0  0  0  0  0  0  0
    3.8919    4.3435    0.0000 C   0  0  0  0  0  0  0  0  0  0  0  0
    3.0493    4.8299    0.0000 C   0  0  0  0  0  0  0  0  0  0  0  0
    3.0493    5.8029    0.0000 C   0  0  0  0  0  0  0  0  0  0  0  0
    3.8919    6.2894    0.0000 C   0  0  0  0  0  0  0  0  0  0  0  0
    4.7345    5.8029    0.0000 C   0  0  0  0  0  0  0  0  0  0  0  0
    4.7345    4.8299    0.0000 C   0  0  0  0  0  0  0  0  0  0  0  0
    5.5771    4.3435    0.0000 N   0  0  0  0  0  0  0  0  0  0  0  0
    6.4197    4.8299    0.0000 C   0  0  0  0  0  0  0  0  0  0  0  0
    7.2624    4.3435    0.0000 C   0  0  0  0  0  0  0  0  0  0  0  0
    7.2624    3.3705    0.0000 C   0  0  0  0  0  0  0  0  0  0  0  0
    6.4197    2.8840    0.0000 C   0  0  0  0  0  0  0  0  0  0  0  0
    5.5771    3.3705    0.0000 C   0  0  0  0  0  0  0  0  0  0  0  0
    1.4595    0.8426    0.0000 C   0  0  0  0  0  0  0  0  0  0  0  0
    0.9730    0.0000    0.0000 C   0  0  0  0  0  0  0  0  0  0  0  0
    0.0000   -0.0000    0.0000 C   0  0  0  0  0  0  0  0  0  0  0  0
   -0.4865   -0.8426    0.0000 C   0  0  0  0  0  0  0  0  0  0  0  0
   -1.4595   -0.8426    0.0000 O   0  0  0  0  0  0  0  0  0  0  0  0
    0.0000   -1.6852    0.0000 O   0  0  0  0  0  0  0  0  0  0  0  0
  1  2  1  0  0  0  0
  2  3  1  0  0  0  0
  3  4  1  0  0  0  0
  4 31  1  0  0  0  0
  4  5  2  0  0  0  0
  5  6  1  0  0  0  0
  6  7  1  0  0  0  0
  6 29  2  0  0  0  0
  7  8  1  0  0  0  0
  8  9  2  0  0  0  0
  8 10  1  0  0  0  0
 10 11  1  0  0  0  0
 11 12  1  1  0  0  0
 11 13  1  0  0  0  0
 11 17  1  0  0  0  0
 13 14  1  0  0  0  0
 14 15  1  0  0  0  0
 14 16  1  0  0  0  0
 17 22  1  0  0  0  0
 17 18  2  0  0  0  0
 18 19  1  0  0  0  0
 19 20  2  0  0  0  0
 20 21  1  0  0  0  0
 21 22  2  0  0  0  0
 22 23  1  0  0  0  0
 23 28  1  0  0  0  0
 23 24  1  0  0  0  0
 24 25  1  0  0  0  0
 25 26  1  0  0  0  0
 26 27  1  0  0  0  0
 27 28  1  0  0  0  0
 29 30  1  0  0  0  0
 30 31  2  0  0  0  0
 31 32  1  0  0  0  0
 32 33  2  0  0  0  0
 32 34  1  0  0  0  0
M  END
$$$$

 OpenBabel10082008492D

  9  9  0  0  0  0  0  0  0  0999 V2000
   -1.7321   -2.0000    0.0000 N   0  0  0  0  0  0  0  0  0  0  0  0
   -0.8660   -1.5000    0.0000 C   0  0  0  0  0  0  0  0  0  0  0  0
   -0.0000   -2.0000    0.0000 O   0  0  0  0  0  0  0  0  0  0  0  0
   -0.8660   -0.5000    0.0000 C   0  0  0  0  0  0  0  0  0  0  0  0
   -1.7321   -0.0000    0.0000 C   0  0  0  0  0  0  0  0  0  0  0  0
   -1.7321    1.0000    0.0000 N   0  0  0  0  0  0  0  0  0  0  0  0
   -0.8660    1.5000    0.0000 C   0  0  0  0  0  0  0  0  0  0  0  0
   -0.0000    1.0000    0.0000 C   0  0  0  0  0  0  0  0  0  0  0  0
    0.0000    0.0000    0.0000 N   0  0  0  0  0  0  0  0  0  0  0  0
  1  2  1  0  0  0  0
  2  3  2  0  0  0  0
  2  4  1  0  0  0  0
  4  9  1  0  0  0  0
  4  5  2  0  0  0  0
  5  6  1  0  0  0  0
  6  7  2  0  0  0  0
  7  8  1  0  0  0  0
  8  9  2  0  0  0  0
M  END
$$$$

 OpenBabel10082008492D

 40 44  0  0  0  0  0  0  0  0999 V2000
    3.4641   -3.0000    0.0000 C   0  0  0  0  0  0  0  0  0  0  0  0
    2.5981   -2.5000    0.0000 C   0  0  0  0  0  0  0  0  0  0  0  0
    1.7321   -3.0000    0.0000 C   0  0  0  0  0  0  0  0  0  0  0  0
    1.7321   -4.0000    0.0000 N   0  0  0  0  0  0  0  0  0  0  0  0
    0.8660   -4.5000    0.0000 C   0  0  0  0  0  0  0  0  0  0  0  0
    0.8660   -5.5000    0.0000 C   0  0  0  0  0  0  0  0  0  0  0  0
    0.0000   -6.0000    0.0000 N   0  0  0  0  0  0  0  0  0  0  0  0
    1.7321   -6.0000    0.0000 O   0  0  0  0  0  0  0  0  0  0  0  0
    0.0000   -4.0000    0.0000 C   0  0  0  0  0  0  0  0  0  0  0  0
   -0.8660   -4.5000    0.0000 N   0  0  0  0  0  0  0  0  0  0  0  0
   -1.7321   -4.0000    0.0000 C   0  0  0  0  0  0  0  0  0  0  0  0
   -1.7321   -3.0000    0.0000 C   0  0  0  0  0  0  0  0  0  0  0  0
   -2.5981   -2.5000    0.0000 C   0  0  0  0  0  0  0  0  0  0  0  0
   -3.4641   -3.0000    0.0000 C   0  0  0  0  0  0  0  0  0  0  0  0
   -4.3301   -2.5000    0.0000 N   0  0  0  0  0  0  0  0  0  0  0  0
   -4.3301   -1.5000    0.0000 C   0  0  0  0  0  0  0  0  0  0  0  0
   -5.1962   -1.0000    0.0000 C   0  0  0  0  0  0  0  0  0  0  0  0
   -6.0622   -1.5000    0.0000 C   0  0  0  0  0  0  0  0  0  0  0  0
   -6.9282   -1.0000    0.0000 N   0  0  0  0  0  0  0  0  0  0  0  0
   -6.9282   -0.0000    0.0000 C   0  0  0  0  0  0  0  0  0  0  0  0
   -7.7942    0.5000    0.0000 C   0  0  0  0  0  0  0  0  0  0  0  0
   -8.6603   -0.0000    0.0000 N   0  0  0  0  0  0  0  0  0  0  0  0
   -9.5263    0.5000    0.0000 C   0  0  0  0  0  0  0  0  0  0  0  0
   -8.6603   -1.0000    0.0000 C   0  0  0  0  0  0  0  0  0  0  0  0
   -7.7942   -1.5000    0.0000 C   0  0  0  0  0  0  0  0  0  0  0  0
   -6.0622   -2.5000    0.0000 C   0  0  0  0  0  0  0  0  0  0  0  0
   -5.1962   -3.0000    0.0000 C   0  0  0  0  0  0  0  0  0  0  0  0
   -3.4641   -4.0000    0.0000 C   0  0  0  0  0  0  0  0  0  0  0  0
   -4.3301   -4.5000    0.0000 O   0  0  0  0  0  0  0  0  0  0  0  0
   -5.1962   -4.0000    0.0000 C   0  0  0  0  0  0  0  0  0  0  0  0
   -2.5981   -4.5000    0.0000 C   0  0  0  0  0  0  0  0  0  0  0  0
    0.0000   -3.0000    0.0000 N   0  0  0  0  0  0  0  0  0  0  0  0
    0.8660   -2.5000    0.0000 C   0  0  0  0  0  0  0  0  0  0  0  0
    0.8660   -1.5000    0.0000 N   0  0  0  0  0  0  0  0  0  0  0  0
    0.0000   -1.0000    0.0000 C   0  0  0  0  0  0  0  0  0  0  0  0
   -0.8660   -1.5000    0.0000 C   0  0  0  0  0  0  0  0  0  0  0  0
   -1.7321   -1.0000    0.0000 C   0  0  0  0  0  0  0  0  0  0  0  0
   -1.7321   -0.0000    0.0000 O   0  0  0  0  0  0  0  0  0  0  0  0
   -0.8660    0.5000    0.0000 C   0  0  0  0  0  0  0  0  0  0  0  0
   -0.0000   -0.0000    0.0000 C   0  0  0  0  0  0  0  0  0  0  0  0
  1  2  1  0  0  0  0
  2  3  1  0  0  0  0
  3 33  1  0  0  0  0
  3  4  2  0  0  0  0
  4  5  1  0  0  0  0
  5  6  1  0  0  0  0
  5  9  2  0  0  0  0
  6  7  1  0  0  0  0
  6  8  2  0  0  0  0
  9 10  1  0  0  0  0
  9 32  1  0  0  0  0
 10 11  1  0  0  0  0
 11 31  1  0  0  0  0
 11 12  2  0  0  0  0
 12 13  1  0  0  0  0
 13 14  2  0  0  0  0
 14 15  1  0  0  0  0
 14 28  1  0  0  0  0
 15 27  1  0  0  0  0
 15 16  1  0  0  0  0
 16 17  1  0  0  0  0
 17 18  1  0  0  0  0
 18 19  1  0  0  0  0
 18 26  1  0  0  0  0
 19 25  1  0  0  0  0
 19 20  1  0  0  0  0
 20 21  1  0  0  0  0
 21 22  1  0  0  0  0
 22 23  1  0  0  0  0
 22 24  1  0  0  0  0
 24 25  1  0  0  0  0
 26 27  1  0  0  0  0
 28 29  1  0  0  0  0
 28 31  2  0  0  0  0
 29 30  1  0  0  0  0
 32 33  2  0  0  0  0
 33 34  1  0  0  0  0
 34 35  1  0  0  0  0
 35 40  1  0  0  0  0
 35 36  1  0  0  0  0
 36 37  1  0  0  0  0
 37 38  1  0  0  0  0
 38 39  1  0  0  0  0
 39 40  1  0  0  0  0
M  END
$$$$

 OpenBabel10082008492D

 19 21  0  0  1  0  0  0  0  0999 V2000
   -3.0703    2.6142    0.0000 O   0  0  0  0  0  0  0  0  0  0  0  0
   -3.0703    1.6479    0.0000 C   0  0  0  0  0  0  0  0  0  0  0  0
   -3.9071    1.1648    0.0000 C   0  0  0  0  0  0  0  0  0  0  0  0
   -3.9071    0.1985    0.0000 C   0  0  0  0  0  0  0  0  0  0  0  0
   -4.7439   -0.2846    0.0000 C   0  0  0  0  0  0  0  0  0  0  0  0
   -5.5807    0.1985    0.0000 C   0  0  0  0  0  0  0  0  0  0  0  0
   -5.5807    1.1648    0.0000 C   0  0  0  0  0  0  0  0  0  0  0  0
   -4.7439    1.6479    0.0000 C   0  0  0  0  0  0  0  0  0  0  0  0
   -2.3522    1.0014    0.0000 C   0  0  0  0  0  0  0  0  0  0  0  0
   -2.5524    0.0448    0.0000 C   0  0  0  0  0  0  0  0  0  0  0  0
   -1.8401   -0.5916    0.0000 C   0  0  0  0  0  0  0  0  0  0  0  0
   -0.9202   -0.2958    0.0000 C   0  0  0  0  0  0  0  0  0  0  0  0
   -1.4323    1.2971    0.0000 N   0  0  0  0  0  0  0  0  0  0  0  0
   -0.5121    1.5930    0.0000 C   0  0  0  0  0  0  0  0  0  0  0  0
    0.2002    0.9566    0.0000 C   0  0  0  0  0  0  0  0  0  0  0  0
    0.0000   -0.0000    0.0000 C   0  0  3  0  0  0  0  0  0  0  0  0
    0.7183   -0.6467    0.0000 C   0  0  0  0  0  0  0  0  0  0  0  0
    0.2350   -1.4838    0.0000 O   0  0  0  0  0  0  0  0  0  0  0  0
    1.6848   -0.6467    0.0000 O   0  0  0  0  0  0  0  0  0  0  0  0
  1  2  2  0  0  0  0
  2  3  1  0  0  0  0
  2  9  1  0  0  0  0
  3  8  1  0  0  0  0
  3  4  2  0  0  0  0
  4  5  1  0  0  0  0
  5  6  2  0  0  0  0
  6  7  1  0  0  0  0
  7  8  2  0  0  0  0
  9 13  1  0  0  0  0
  9 10  2  0  0  0  0
 10 11  1  0  0  0  0
 11 12  2  0  0  0  0
 12 16  1  0  0  0  0
 12 13  1  0  0  0  0
 13 14  1  0  0  0  0
 14 15  1  0  0  0  0
 15 16  1  0  0  0  0
 16 17  1  0  0  0  0
 17 18  2  0  0  0  0
 17 19  1  0  0  0  0
M  END
$$$$

 OpenBabel10082008492D

 25 26  0  0  1  0  0  0  0  0999 V2000
    1.1340    4.9641    0.0000 C   0  0  0  0  0  0  0  0  0  0  0  0
    0.6340    4.0981    0.0000 C   0  0  0  0  0  0  0  0  0  0  0  0
   -0.3660    4.0981    0.0000 C   0  0  0  0  0  0  0  0  0  0  0  0
    1.1340    3.2321    0.0000 N   0  0  0  0  0  0  0  0  0  0  0  0
    0.6340    2.3660    0.0000 C   0  0  0  0  0  0  0  0  0  0  0  0
   -0.3660    2.3660    0.0000 C   0  0  0  0  0  0  0  0  0  0  0  0
   -0.8660    1.5000    0.0000 C   0  0  3  0  0  0  0  0  0  0  0  0
   -1.7321    2.0000    0.0000 C   0  0  0  0  0  0  0  0  0  0  0  0
   -1.7321    3.0000    0.0000 N   0  0  0  0  0  0  0  0  0  0  0  0
   -2.5981    1.5000    0.0000 O   0  0  0  0  0  0  0  0  0  0  0  0
   -1.3660    0.6340    0.0000 C   0  0  0  0  0  0  0  0  0  0  0  0
   -0.8660   -0.2321    0.0000 C   0  0  0  0  0  0  0  0  0  0  0  0
   -1.3660   -1.0981    0.0000 C   0  0  0  0  0  0  0  0  0  0  0  0
   -2.3660   -1.0981    0.0000 C   0  0  0  0  0  0  0  0  0  0  0  0
   -2.8660   -0.2321    0.0000 C   0  0  0  0  0  0  0  0  0  0  0  0
   -2.3660    0.6340    0.0000 C   0  0  0  0  0  0  0  0  0  0  0  0
    0.0000    1.0000    0.0000 C   0  0  0  0  0  0  0  0  0  0  0  0
    0.8660    1.5000    0.0000 C   0  0  0  0  0  0  0  0  0  0  0  0
    1.7321    1.0000    0.0000 C   0  0  0  0  0  0  0  0  0  0  0  0
    1.7321   -0.0000    0.0000 C   0  0  0  0  0  0  0  0  0  0  0  0
    0.8660   -0.5000    0.0000 C   0  0  0  0  0  0  0  0  0  0  0  0
    0.0000   -0.0000    0.0000 N   0  0  0  0  0  0  0  0  0  0  0  0
    2.1340    3.2321    0.0000 C   0  0  0  0  0  0  0  0  0  0  0  0
    2.6340    2.3660    0.0000 C   0  0  0  0  0  0  0  0  0  0  0  0
    2.6340    4.0981    0.0000 C   0  0  0  0  0  0  0  0  0  0  0  0
  1  2  1  0  0  0  0
  2  3  1  0  0  0  0
  2  4  1  0  0  0  0
  4  5  1  0  0  0  0
  4 23  1  0  0  0  0
  5  6  1  0  0  0  0
  6  7  1  0  0  0  0
  7  8  1  0  0  0  0
  7 11  1  0  0  0  0
  7 17  1  0  0  0  0
  8  9  1  0  0  0  0
  8 10  2  0  0  0  0
 11 16  1  0  0  0  0
 11 12  2  0  0  0  0
 12 13  1  0  0  0  0
 13 14  2  0  0  0  0
 14 15  1  0  0  0  0
 15 16  2  0  0  0  0
 17 22  1  0  0  0  0
 17 18  2  0  0  0  0
 18 19  1  0  0  0  0
 19 20  2  0  0  0  0
 20 21  1  0  0  0  0
 21 22  2  0  0  0  0
 23 24  1  0  0  0  0
 23 25  1  0  0  0  0
M  END
$$$$

 OpenBabel10082008492D

 20 22  0  0  1  0  0  0  0  0999 V2000
    1.3719    0.9164    0.0000 C   0  0  0  0  0  0  0  0  0  0  0  0
    1.6695   -0.0004    0.0000 N   0  0  0  0  0  0  0  0  0  0  0  0
    0.8346   -0.4822    0.0000 C   0  0  2  0  0  0  0  0  0  0  0  0
    1.7055   -0.9852    0.0000 H   0  0  0  0  0  0  0  0  0  0  0  0
    0.8344   -1.4467    0.0000 C   0  0  0  0  0  0  0  0  0  0  0  0
   -0.0004   -1.9285    0.0000 C   0  0  0  0  0  0  0  0  0  0  0  0
   -0.8355   -1.4463    0.0000 C   0  0  0  0  0  0  0  0  0  0  0  0
   -1.6703   -1.9282    0.0000 N   0  0  0  0  0  0  0  0  0  0  0  0
   -1.6704   -2.9339    0.0000 H   0  0  0  0  0  0  0  0  0  0  0  0
   -2.5055   -1.4460    0.0000 C   0  0  0  0  0  0  0  0  0  0  0  0
   -3.3408   -1.9278    0.0000 C   0  0  0  0  0  0  0  0  0  0  0  0
   -4.1754   -1.4457    0.0000 C   0  0  0  0  0  0  0  0  0  0  0  0
   -4.1753   -0.4812    0.0000 C   0  0  0  0  0  0  0  0  0  0  0  0
   -5.0099    0.0009    0.0000 C   0  0  0  0  0  0  0  0  0  0  0  0
   -5.2102    0.9438    0.0000 N   0  0  0  0  0  0  0  0  0  0  0  0
   -5.7264   -0.6439    0.0000 O   0  0  0  0  0  0  0  0  0  0  0  0
   -3.3404    0.0007    0.0000 C   0  0  0  0  0  0  0  0  0  0  0  0
   -2.5053   -0.4815    0.0000 C   0  0  0  0  0  0  0  0  0  0  0  0
   -0.8353   -0.4818    0.0000 C   0  0  0  0  0  0  0  0  0  0  0  0
   -0.0000   -0.0000    0.0000 C   0  0  0  0  0  0  0  0  0  0  0  0
  1  2  1  0  0  0  0
  2  3  1  0  0  0  0
  3  4  1  1  0  0  0
  3 20  1  0  0  0  0
  3  5  1  0  0  0  0
  5  6  1  0  0  0  0
  6  7  1  0  0  0  0
  7 19  2  0  0  0  0
  7  8  1  0  0  0  0
  8  9  1  0  0  0  0
  8 10  1  0  0  0  0
 10 18  1  0  0  0  0
 10 11  2  0  0  0  0
 11 12  1  0  0  0  0
 12 13  2  0  0  0  0
 13 14  1  0  0  0  0
 13 17  1  0  0  0  0
 14 15  1  0  0  0  0
 14 16  2  0  0  0  0
 17 18  2  0  0  0  0
 18 19  1  0  0  0  0
 19 20  1  0  0  0  0
M  END
$$$$

 OpenBabel10082008492D

 22 25  0  0  0  0  0  0  0  0999 V2000
    1.1012    3.3573    0.0000 C   0  0  0  0  0  0  0  0  0  0  0  0
    1.0863    2.3574    0.0000 C   0  0  0  0  0  0  0  0  0  0  0  0
    1.8864    1.7576    0.0000 N   0  0  0  0  0  0  0  0  0  0  0  0
    1.5632    0.8113    0.0000 N   0  0  0  0  0  0  0  0  0  0  0  0
    0.5633    0.8262    0.0000 C   0  0  0  0  0  0  0  0  0  0  0  0
    0.2686    1.7818    0.0000 N   0  0  0  0  0  0  0  0  0  0  0  0
   -0.6623    2.1472    0.0000 C   0  0  0  0  0  0  0  0  0  0  0  0
   -0.6623    3.1472    0.0000 C   0  0  0  0  0  0  0  0  0  0  0  0
   -1.5283    3.6472    0.0000 C   0  0  0  0  0  0  0  0  0  0  0  0
   -2.3944    3.1472    0.0000 C   0  0  0  0  0  0  0  0  0  0  0  0
   -3.2604    3.6472    0.0000 Cl  0  0  0  0  0  0  0  0  0  0  0  0
   -2.3944    2.1472    0.0000 C   0  0  0  0  0  0  0  0  0  0  0  0
   -1.5283    1.6472    0.0000 C   0  0  0  0  0  0  0  0  0  0  0  0
   -1.6774    0.6583    0.0000 C   0  0  0  0  0  0  0  0  0  0  0  0
   -2.6329    0.3636    0.0000 C   0  0  0  0  0  0  0  0  0  0  0  0
   -2.8555   -0.6114    0.0000 C   0  0  0  0  0  0  0  0  0  0  0  0
   -3.8110   -0.9061    0.0000 C   0  0  0  0  0  0  0  0  0  0  0  0
   -4.5441   -0.2259    0.0000 C   0  0  0  0  0  0  0  0  0  0  0  0
   -4.3216    0.7490    0.0000 C   0  0  0  0  0  0  0  0  0  0  0  0
   -3.3660    1.0437    0.0000 C   0  0  0  0  0  0  0  0  0  0  0  0
   -0.9972   -0.0747    0.0000 N   0  0  0  0  0  0  0  0  0  0  0  0
    0.0000   -0.0000    0.0000 C   0  0  0  0  0  0  0  0  0  0  0  0
  1  2  1  0  0  0  0
  2  6  1  0  0  0  0
  2  3  2  0  0  0  0
  3  4  1  0  0  0  0
  4  5  2  0  0  0  0
  5 22  1  0  0  0  0
  5  6  1  0  0  0  0
  6  7  1  0  0  0  0
  7 13  1  0  0  0  0
  7  8  2  0  0  0  0
  8  9  1  0  0  0  0
  9 10  2  0  0  0  0
 10 11  1  0  0  0  0
 10 12  1  0  0  0  0
 12 13  2  0  0  0  0
 13 14  1  0  0  0  0
 14 15  1  0  0  0  0
 14 21  2  0  0  0  0
 15 20  1  0  0  0  0
 15 16  2  0  0  0  0
 16 17  1  0  0  0  0
 17 18  2  0  0  0  0
 18 19  1  0  0  0  0
 19 20  2  0  0  0  0
 21 22  1  0  0  0  0
M  END
$$$$

 OpenBabel10082008492D

 30 33  0  0  0  0  0  0  0  0999 V2000
    0.8660   -2.5000    0.0000 C   0  0  0  0  0  0  0  0  0  0  0  0
    0.8660   -1.5000    0.0000 O   0  0  0  0  0  0  0  0  0  0  0  0
    0.0000   -1.0000    0.0000 C   0  0  0  0  0  0  0  0  0  0  0  0
   -0.8660   -1.5000    0.0000 C   0  0  0  0  0  0  0  0  0  0  0  0
   -1.7321   -1.0000    0.0000 C   0  0  0  0  0  0  0  0  0  0  0  0
   -2.5981   -1.5000    0.0000 N   0  0  0  0  0  0  0  0  0  0  0  0
   -3.4641   -1.0000    0.0000 C   0  0  0  0  0  0  0  0  0  0  0  0
   -3.4641   -0.0000    0.0000 C   0  0  0  0  0  0  0  0  0  0  0  0
   -2.5981    0.5000    0.0000 C   0  0  0  0  0  0  0  0  0  0  0  0
   -2.5981    1.5000    0.0000 O   0  0  0  0  0  0  0  0  0  0  0  0
   -3.4641    2.0000    0.0000 C   0  0  0  0  0  0  0  0  0  0  0  0
   -3.4641    3.0000    0.0000 C   0  0  0  0  0  0  0  0  0  0  0  0
   -4.3301    3.5000    0.0000 C   0  0  0  0  0  0  0  0  0  0  0  0
   -5.1962    3.0000    0.0000 C   0  0  0  0  0  0  0  0  0  0  0  0
   -6.0622    3.5000    0.0000 N   0  0  0  0  0  0  0  0  0  0  0  0
   -6.9282    3.0000    0.0000 C   0  0  0  0  0  0  0  0  0  0  0  0
   -6.9282    2.0000    0.0000 O   0  0  0  0  0  0  0  0  0  0  0  0
   -7.7942    3.5000    0.0000 N   0  0  0  0  0  0  0  0  0  0  0  0
   -8.6603    3.0000    0.0000 C   0  0  0  0  0  0  0  0  0  0  0  0
   -9.6603    3.0000    0.0000 C   0  0  0  0  0  0  0  0  0  0  0  0
   -9.1603    2.1340    0.0000 C   0  0  0  0  0  0  0  0  0  0  0  0
   -5.1962    2.0000    0.0000 C   0  0  0  0  0  0  0  0  0  0  0  0
   -6.0622    1.5000    0.0000 Cl  0  0  0  0  0  0  0  0  0  0  0  0
   -4.3301    1.5000    0.0000 C   0  0  0  0  0  0  0  0  0  0  0  0
   -1.7321   -0.0000    0.0000 C   0  0  0  0  0  0  0  0  0  0  0  0
   -0.8660    0.5000    0.0000 C   0  0  0  0  0  0  0  0  0  0  0  0
    0.0000   -0.0000    0.0000 C   0  0  0  0  0  0  0  0  0  0  0  0
    0.8660    0.5000    0.0000 C   0  0  0  0  0  0  0  0  0  0  0  0
    1.7321    0.0000    0.0000 N   0  0  0  0  0  0  0  0  0  0  0  0
    0.8660    1.5000    0.0000 O   0  0  0  0  0  0  0  0  0  0  0  0
  1  2  1  0  0  0  0
  2  3  1  0  0  0  0
  3 27  1  0  0  0  0
  3  4  2  0  0  0  0
  4  5  1  0  0  0  0
  5 25  1  0  0  0  0
  5  6  2  0  0  0  0
  6  7  1  0  0  0  0
  7  8  2  0  0  0  0
  8  9  1  0  0  0  0
  9 10  1  0  0  0  0
  9 25  2  0  0  0  0
 10 11  1  0  0  0  0
 11 24  1  0  0  0  0
 11 12  2  0  0  0  0
 12 13  1  0  0  0  0
 13 14  2  0  0  0  0
 14 15  1  0  0  0  0
 14 22  1  0  0  0  0
 15 16  1  0  0  0  0
 16 17  2  0  0  0  0
 16 18  1  0  0  0  0
 18 19  1  0  0  0  0
 19 21  1  0  0  0  0
 19 20  1  0  0  0  0
 20 21  1  0  0  0  0
 22 23  1  0  0  0  0
 22 24  2  0  0  0  0
 25 26  1  0  0  0  0
 26 27  2  0  0  0  0
 27 28  1  0  0  0  0
 28 29  1  0  0  0  0
 28 30  2  0  0  0  0
M  END
$$$$

 OpenBabel10082008492D

 27 29  0  0  0  0  0  0  0  0999 V2000
    0.8660   -2.5000    0.0000 C   0  0  0  0  0  0  0  0  0  0  0  0
    0.8660   -1.5000    0.0000 O   0  0  0  0  0  0  0  0  0  0  0  0
    0.0000   -1.0000    0.0000 C   0  0  0  0  0  0  0  0  0  0  0  0
   -0.8660   -1.5000    0.0000 C   0  0  0  0  0  0  0  0  0  0  0  0
   -1.7321   -1.0000    0.0000 C   0  0  0  0  0  0  0  0  0  0  0  0
   -1.7321   -0.0000    0.0000 C   0  0  0  0  0  0  0  0  0  0  0  0
   -2.5981    0.5000    0.0000 C   0  0  0  0  0  0  0  0  0  0  0  0
   -2.5981    1.5000    0.0000 Cl  0  0  0  0  0  0  0  0  0  0  0  0
   -3.4641    0.0000    0.0000 C   0  0  0  0  0  0  0  0  0  0  0  0
   -4.3301    0.5000    0.0000 C   0  0  0  0  0  0  0  0  0  0  0  0
   -5.1962   -0.0000    0.0000 C   0  0  0  0  0  0  0  0  0  0  0  0
   -6.0622    0.5000    0.0000 C   0  0  0  0  0  0  0  0  0  0  0  0
   -6.0622    1.5000    0.0000 C   0  0  0  0  0  0  0  0  0  0  0  0
   -6.9282    2.0000    0.0000 O   0  0  0  0  0  0  0  0  0  0  0  0
   -7.7942    1.5000    0.0000 C   0  0  0  0  0  0  0  0  0  0  0  0
   -5.1962    2.0000    0.0000 C   0  0  0  0  0  0  0  0  0  0  0  0
   -4.3301    1.5000    0.0000 C   0  0  0  0  0  0  0  0  0  0  0  0
   -3.4641   -1.0000    0.0000 C   0  0  0  0  0  0  0  0  0  0  0  0
   -2.5981   -1.5000    0.0000 C   0  0  0  0  0  0  0  0  0  0  0  0
   -2.5981   -2.5000    0.0000 C   0  0  0  0  0  0  0  0  0  0  0  0
   -3.4641   -3.0000    0.0000 C   0  0  0  0  0  0  0  0  0  0  0  0
   -3.4641   -4.0000    0.0000 O   0  0  0  0  0  0  0  0  0  0  0  0
   -4.3301   -4.5000    0.0000 C   0  0  0  0  0  0  0  0  0  0  0  0
   -4.3301   -2.5000    0.0000 C   0  0  0  0  0  0  0  0  0  0  0  0
   -4.3301   -1.5000    0.0000 C   0  0  0  0  0  0  0  0  0  0  0  0
   -0.8660    0.5000    0.0000 C   0  0  0  0  0  0  0  0  0  0  0  0
    0.0000    0.0000    0.0000 C   0  0  0  0  0  0  0  0  0  0  0  0
  1  2  1  0  0  0  0
  2  3  1  0  0  0  0
  3 27  1  0  0  0  0
  3  4  2  0  0  0  0
  4  5  1  0  0  0  0
  5  6  2  0  0  0  0
  6  7  1  0  0  0  0
  6 26  1  0  0  0  0
  7  8  1  0  0  0  0
  7  9  2  0  0  0  0
  9 10  1  0  0  0  0
  9 18  1  0  0  0  0
 10 17  1  0  0  0  0
 10 11  2  0  0  0  0
 11 12  1  0  0  0  0
 12 13  2  0  0  0  0
 13 14  1  0  0  0  0
 13 16  1  0  0  0  0
 14 15  1  0  0  0  0
 16 17  2  0  0  0  0
 18 25  1  0  0  0  0
 18 19  2  0  0  0  0
 19 20  1  0  0  0  0
 20 21  2  0  0  0  0
 21 22  1  0  0  0  0
 21 24  1  0  0  0  0
 22 23  1  0  0  0  0
 24 25  2  0  0  0  0
 26 27  2  0  0  0  0
M  END
$$$$

 OpenBabel10082008492D

 26 28  0  0  0  0  0  0  0  0999 V2000
    3.0878    0.0570    0.0000 C   0  0  0  0  0  0  0  0  0  0  0  0
    3.5878   -0.8090    0.0000 C   0  0  0  0  0  0  0  0  0  0  0  0
    4.5878   -0.8090    0.0000 C   0  0  0  0  0  0  0  0  0  0  0  0
    5.0878    0.0570    0.0000 O   0  0  0  0  0  0  0  0  0  0  0  0
    6.0878    0.0570    0.0000 C   0  0  0  0  0  0  0  0  0  0  0  0
    6.5878    0.9230    0.0000 C   0  0  0  0  0  0  0  0  0  0  0  0
    6.5878    1.9230    0.0000 F   0  0  0  0  0  0  0  0  0  0  0  0
    5.7218    1.4230    0.0000 F   0  0  0  0  0  0  0  0  0  0  0  0
    7.5878    0.9230    0.0000 F   0  0  0  0  0  0  0  0  0  0  0  0
    5.0878   -1.6750    0.0000 C   0  0  0  0  0  0  0  0  0  0  0  0
    4.5878   -2.5411    0.0000 C   0  0  0  0  0  0  0  0  0  0  0  0
    3.5878   -2.5411    0.0000 N   0  0  0  0  0  0  0  0  0  0  0  0
    3.0878   -1.6750    0.0000 C   0  0  0  0  0  0  0  0  0  0  0  0
    2.0878   -1.6750    0.0000 C   0  0  0  0  0  0  0  0  0  0  0  0
    1.5878   -0.8090    0.0000 S   0  3  3  0  0  0  0  0  0  0  0  0
    2.0878    0.0570    0.0000 O   0  5  0  0  0  0  0  0  0  0  0  0
    0.5878   -0.8090    0.0000 C   0  0  0  0  0  0  0  0  0  0  0  0
    0.0000   -1.6180    0.0000 N   0  0  0  0  0  0  0  0  0  0  0  0
   -0.9511   -1.3090    0.0000 C   0  0  0  0  0  0  0  0  0  0  0  0
   -1.8171   -1.8090    0.0000 C   0  0  0  0  0  0  0  0  0  0  0  0
   -2.6831   -1.3090    0.0000 C   0  0  0  0  0  0  0  0  0  0  0  0
   -2.6831   -0.3090    0.0000 C   0  0  0  0  0  0  0  0  0  0  0  0
   -1.8171    0.1910    0.0000 C   0  0  0  0  0  0  0  0  0  0  0  0
   -0.9511   -0.3090    0.0000 C   0  0  0  0  0  0  0  0  0  0  0  0
   -0.0000   -0.0000    0.0000 N   0  0  0  0  0  0  0  0  0  0  0  0
    0.3090    0.9511    0.0000 H   0  0  0  0  0  0  0  0  0  0  0  0
  1  2  1  0  0  0  0
  2 13  1  0  0  0  0
  2  3  2  0  0  0  0
  3  4  1  0  0  0  0
  3 10  1  0  0  0  0
  4  5  1  0  0  0  0
  5  6  1  0  0  0  0
  6  7  1  0  0  0  0
  6  8  1  0  0  0  0
  6  9  1  0  0  0  0
 10 11  2  0  0  0  0
 11 12  1  0  0  0  0
 12 13  2  0  0  0  0
 13 14  1  0  0  0  0
 14 15  1  0  0  0  0
 15 16  1  0  0  0  0
 15 17  1  0  0  0  0
 17 25  1  0  0  0  0
 17 18  2  0  0  0  0
 18 19  1  0  0  0  0
 19 24  1  0  0  0  0
 19 20  2  0  0  0  0
 20 21  1  0  0  0  0
 21 22  2  0  0  0  0
 22 23  1  0  0  0  0
 23 24  2  0  0  0  0
 24 25  1  0  0  0  0
 25 26  1  0  0  0  0
M  CHG  2  15   1  16  -1
M  END
$$$$

 OpenBabel10082008492D

 12 12  0  0  0  0  0  0  0  0999 V2000
   -0.4177   -2.1730    0.0000 N   0  0  0  0  0  0  0  0  0  0  0  0
   -0.1589   -1.2071    0.0000 C   0  0  0  0  0  0  0  0  0  0  0  0
   -0.8660   -0.5000    0.0000 C   0  0  0  0  0  0  0  0  0  0  0  0
   -1.7899   -0.8827    0.0000 C   0  0  0  0  0  0  0  0  0  0  0  0
   -2.5833   -0.2739    0.0000 C   0  0  0  0  0  0  0  0  0  0  0  0
   -2.4527    0.7175    0.0000 O   0  0  0  0  0  0  0  0  0  0  0  0
   -3.5071   -0.6566    0.0000 O   0  0  0  0  0  0  0  0  0  0  0  0
   -1.7321   -0.0000    0.0000 C   0  0  0  0  0  0  0  0  0  0  0  0
   -1.7321    1.0000    0.0000 C   0  0  0  0  0  0  0  0  0  0  0  0
   -0.8660    1.5000    0.0000 C   0  0  0  0  0  0  0  0  0  0  0  0
   -0.0000    1.0000    0.0000 C   0  0  0  0  0  0  0  0  0  0  0  0
    0.0000    0.0000    0.0000 C   0  0  0  0  0  0  0  0  0  0  0  0
  1  2  1  0  0  0  0
  2  3  1  0  0  0  0
  3 12  1  0  0  0  0
  3  4  1  0  0  0  0
  3  8  1  0  0  0  0
  4  5  1  0  0  0  0
  5  6  2  0  0  0  0
  5  7  1  0  0  0  0
  8  9  1  0  0  0  0
  9 10  1  0  0  0  0
 10 11  1  0  0  0  0
 11 12  1  0  0  0  0
M  END
$$$$

 OpenBabel10082008492D

 24 25  0  0  1  0  0  0  0  0999 V2000
    0.8660    3.5000    0.0000 N   0  0  0  0  0  0  0  0  0  0  0  0
    0.8660    2.5000    0.0000 C   0  0  1  0  0  0  0  0  0  0  0  0
   -0.1340    2.5000    0.0000 H   0  0  0  0  0  0  0  0  0  0  0  0
    0.8660    1.5000    0.0000 C   0  0  0  0  0  0  0  0  0  0  0  0
    0.0000    1.0000    0.0000 C   0  0  0  0  0  0  0  0  0  0  0  0
   -0.8660    1.5000    0.0000 C   0  0  0  0  0  0  0  0  0  0  0  0
   -1.7321    1.0000    0.0000 C   0  0  0  0  0  0  0  0  0  0  0  0
   -2.5981    1.5000    0.0000 I   0  0  0  0  0  0  0  0  0  0  0  0
   -1.7321    0.0000    0.0000 C   0  0  0  0  0  0  0  0  0  0  0  0
   -2.5981   -0.5000    0.0000 O   0  0  0  0  0  0  0  0  0  0  0  0
   -3.4641   -0.0000    0.0000 C   0  0  0  0  0  0  0  0  0  0  0  0
   -3.4641    1.0000    0.0000 C   0  0  0  0  0  0  0  0  0  0  0  0
   -4.3301    1.5000    0.0000 C   0  0  0  0  0  0  0  0  0  0  0  0
   -5.1962    1.0000    0.0000 C   0  0  0  0  0  0  0  0  0  0  0  0
   -6.0622    1.5000    0.0000 O   0  0  0  0  0  0  0  0  0  0  0  0
   -5.1962   -0.0000    0.0000 C   0  0  0  0  0  0  0  0  0  0  0  0
   -6.0622   -0.5000    0.0000 I   0  0  0  0  0  0  0  0  0  0  0  0
   -4.3301   -0.5000    0.0000 C   0  0  0  0  0  0  0  0  0  0  0  0
   -0.8660   -0.5000    0.0000 C   0  0  0  0  0  0  0  0  0  0  0  0
   -0.8660   -1.5000    0.0000 I   0  0  0  0  0  0  0  0  0  0  0  0
    0.0000   -0.0000    0.0000 C   0  0  0  0  0  0  0  0  0  0  0  0
    1.8660    2.5000    0.0000 C   0  0  0  0  0  0  0  0  0  0  0  0
    2.3660    1.6340    0.0000 O   0  0  0  0  0  0  0  0  0  0  0  0
    2.3660    3.3660    0.0000 O   0  0  0  0  0  0  0  0  0  0  0  0
  1  2  1  0  0  0  0
  2  3  1  1  0  0  0
  2  4  1  0  0  0  0
  2 22  1  0  0  0  0
  4  5  1  0  0  0  0
  5 21  1  0  0  0  0
  5  6  2  0  0  0  0
  6  7  1  0  0  0  0
  7  8  1  0  0  0  0
  7  9  2  0  0  0  0
  9 10  1  0  0  0  0
  9 19  1  0  0  0  0
 10 11  1  0  0  0  0
 11 18  1  0  0  0  0
 11 12  2  0  0  0  0
 12 13  1  0  0  0  0
 13 14  2  0  0  0  0
 14 15  1  0  0  0  0
 14 16  1  0  0  0  0
 16 17  1  0  0  0  0
 16 18  2  0  0  0  0
 19 20  1  0  0  0  0
 19 21  2  0  0  0  0
 22 23  2  0  0  0  0
 22 24  1  0  0  0  0
M  END
$$$$

 OpenBabel10082008492D

  5  4  0  0  0  0  0  0  0  0999 V2000
    1.7321   -1.0000    0.0000 C   0  0  0  0  0  0  0  0  0  0  0  0
    1.7321   -0.0000    0.0000 C   0  0  0  0  0  0  0  0  0  0  0  0
    2.5981    0.5000    0.0000 O   0  0  0  0  0  0  0  0  0  0  0  0
    0.8660    0.5000    0.0000 N   0  0  0  0  0  0  0  0  0  0  0  0
    0.0000    0.0000    0.0000 O   0  0  0  0  0  0  0  0  0  0  0  0
  1  2  1  0  0  0  0
  2  3  2  0  0  0  0
  2  4  1  0  0  0  0
  4  5  1  0  0  0  0
M  END
$$$$

 OpenBabel10082008492D

 26 27  0  0  1  0  0  0  0  0999 V2000
    1.6730   -1.4483    0.0000 C   0  0  0  0  0  0  0  0  0  0  0  0
    0.9659   -0.7412    0.0000 C   0  0  0  0  0  0  0  0  0  0  0  0
    1.2247    0.2247    0.0000 C   0  0  0  0  0  0  0  0  0  0  0  0
    0.0000   -1.0000    0.0000 C   0  0  1  0  0  0  0  0  0  0  0  0
   -0.1305   -1.9914    0.0000 H   0  0  0  0  0  0  0  0  0  0  0  0
   -0.8660   -1.5000    0.0000 C   0  0  0  0  0  0  0  0  0  0  0  0
   -1.7321   -1.0000    0.0000 C   0  0  0  0  0  0  0  0  0  0  0  0
   -1.7321   -0.0000    0.0000 C   0  0  2  0  0  0  0  0  0  0  0  0
   -2.2321    0.8660    0.0000 H   0  0  0  0  0  0  0  0  0  0  0  0
   -2.7321   -0.0000    0.0000 C   0  0  0  0  0  0  0  0  0  0  0  0
   -3.2321   -0.8660    0.0000 O   0  0  0  0  0  0  0  0  0  0  0  0
   -3.2321    0.8660    0.0000 N   0  0  0  0  0  0  0  0  0  0  0  0
   -4.2321    0.8660    0.0000 C   0  0  2  0  0  0  0  0  0  0  0  0
   -4.2321   -0.1340    0.0000 H   0  0  0  0  0  0  0  0  0  0  0  0
   -5.2321    0.8660    0.0000 C   0  0  0  0  0  0  0  0  0  0  0  0
   -5.7321   -0.0000    0.0000 C   0  0  0  0  0  0  0  0  0  0  0  0
   -6.7321   -0.0000    0.0000 C   0  0  0  0  0  0  0  0  0  0  0  0
   -7.2321   -0.8660    0.0000 C   0  0  0  0  0  0  0  0  0  0  0  0
   -6.7321   -1.7321    0.0000 C   0  0  0  0  0  0  0  0  0  0  0  0
   -5.7321   -1.7321    0.0000 C   0  0  0  0  0  0  0  0  0  0  0  0
   -5.2321   -0.8660    0.0000 C   0  0  0  0  0  0  0  0  0  0  0  0
   -4.2321    1.8660    0.0000 C   0  0  0  0  0  0  0  0  0  0  0  0
   -5.0981    2.3660    0.0000 O   0  0  0  0  0  0  0  0  0  0  0  0
   -3.3660    2.3660    0.0000 O   0  0  0  0  0  0  0  0  0  0  0  0
   -0.8660    0.5000    0.0000 C   0  0  0  0  0  0  0  0  0  0  0  0
   -0.0000   -0.0000    0.0000 C   0  0  0  0  0  0  0  0  0  0  0  0
  1  2  1  0  0  0  0
  2  3  1  0  0  0  0
  2  4  1  0  0  0  0
  4  5  1  6  0  0  0
  4 26  1  0  0  0  0
  4  6  1  0  0  0  0
  6  7  1  0  0  0  0
  7  8  1  0  0  0  0
  8  9  1  1  0  0  0
  8 10  1  0  0  0  0
  8 25  1  0  0  0  0
 10 11  2  0  0  0  0
 10 12  1  0  0  0  0
 12 13  1  0  0  0  0
 13 14  1  1  0  0  0
 13 15  1  0  0  0  0
 13 22  1  0  0  0  0
 15 16  1  0  0  0  0
 16 21  1  0  0  0  0
 16 17  2  0  0  0  0
 17 18  1  0  0  0  0
 18 19  2  0  0  0  0
 19 20  1  0  0  0  0
 20 21  2  0  0  0  0
 22 23  2  0  0  0  0
 22 24  1  0  0  0  0
 25 26  1  0  0  0  0
M  END
$$$$

 OpenBabel10082008492D

 35 36  0  0  1  0  0  0  0  0999 V2000
    1.7321   -0.0000    0.0000 C   0  0  0  0  0  0  0  0  0  0  0  0
    0.8660   -0.5000    0.0000 C   0  0  0  0  0  0  0  0  0  0  0  0
    0.8660   -1.5000    0.0000 C   0  0  0  0  0  0  0  0  0  0  0  0
    1.7321   -2.0000    0.0000 C   0  0  0  0  0  0  0  0  0  0  0  0
    1.7321   -3.0000    0.0000 C   0  0  0  0  0  0  0  0  0  0  0  0
    2.5981   -3.5000    0.0000 C   0  0  0  0  0  0  0  0  0  0  0  0
    3.4641   -3.0000    0.0000 C   0  0  0  0  0  0  0  0  0  0  0  0
    2.5981   -4.5000    0.0000 C   0  0  0  0  0  0  0  0  0  0  0  0
    3.4641   -5.0000    0.0000 C   0  0  0  0  0  0  0  0  0  0  0  0
    4.3301   -4.5000    0.0000 C   0  0  0  0  0  0  0  0  0  0  0  0
    5.1962   -5.0000    0.0000 C   0  0  2  0  0  0  0  0  0  0  0  0
    5.6962   -5.8660    0.0000 H   0  0  0  0  0  0  0  0  0  0  0  0
    4.6962   -5.8660    0.0000 C   0  0  0  0  0  0  0  0  0  0  0  0
    6.0622   -4.5000    0.0000 C   0  0  0  0  0  0  0  0  0  0  0  0
    6.9282   -5.0000    0.0000 C   0  0  0  0  0  0  0  0  0  0  0  0
    7.7942   -4.5000    0.0000 C   0  0  0  0  0  0  0  0  0  0  0  0
    8.6603   -5.0000    0.0000 C   0  0  2  0  0  0  0  0  0  0  0  0
    9.1603   -5.8660    0.0000 H   0  0  0  0  0  0  0  0  0  0  0  0
    8.1603   -5.8660    0.0000 C   0  0  0  0  0  0  0  0  0  0  0  0
    9.5263   -4.5000    0.0000 C   0  0  0  0  0  0  0  0  0  0  0  0
   10.3923   -5.0000    0.0000 C   0  0  0  0  0  0  0  0  0  0  0  0
   11.2583   -4.5000    0.0000 C   0  0  0  0  0  0  0  0  0  0  0  0
   12.1244   -5.0000    0.0000 C   0  0  0  0  0  0  0  0  0  0  0  0
   12.9904   -4.5000    0.0000 C   0  0  0  0  0  0  0  0  0  0  0  0
   12.1244   -6.0000    0.0000 C   0  0  0  0  0  0  0  0  0  0  0  0
    0.0000   -2.0000    0.0000 C   0  0  0  0  0  0  0  0  0  0  0  0
   -0.0000   -3.0000    0.0000 O   0  0  0  0  0  0  0  0  0  0  0  0
   -0.8660   -1.5000    0.0000 C   0  0  0  0  0  0  0  0  0  0  0  0
   -1.7321   -2.0000    0.0000 C   0  0  0  0  0  0  0  0  0  0  0  0
   -2.5981   -1.5000    0.0000 C   0  0  0  0  0  0  0  0  0  0  0  0
   -2.5981   -0.5000    0.0000 C   0  0  0  0  0  0  0  0  0  0  0  0
   -1.7321    0.0000    0.0000 C   0  0  0  0  0  0  0  0  0  0  0  0
   -0.8660   -0.5000    0.0000 C   0  0  0  0  0  0  0  0  0  0  0  0
    0.0000   -0.0000    0.0000 C   0  0  0  0  0  0  0  0  0  0  0  0
   -0.0000    1.0000    0.0000 O   0  0  0  0  0  0  0  0  0  0  0  0
  1  2  1  0  0  0  0
  2 34  1  0  0  0  0
  2  3  2  0  0  0  0
  3  4  1  0  0  0  0
  3 26  1  0  0  0  0
  4  5  1  0  0  0  0
  5  6  2  0  0  0  0
  6  7  1  0  0  0  0
  6  8  1  0  0  0  0
  8  9  1  0  0  0  0
  9 10  1  0  0  0  0
 10 11  1  0  0  0  0
 11 12  1  6  0  0  0
 11 13  1  0  0  0  0
 11 14  1  0  0  0  0
 14 15  1  0  0  0  0
 15 16  1  0  0  0  0
 16 17  1  0  0  0  0
 17 18  1  6  0  0  0
 17 19  1  0  0  0  0
 17 20  1  0  0  0  0
 20 21  1  0  0  0  0
 21 22  1  0  0  0  0
 22 23  1  0  0  0  0
 23 24  1  0  0  0  0
 23 25  1  0  0  0  0
 26 27  2  0  0  0  0
 26 28  1  0  0  0  0
 28 33  1  0  0  0  0
 28 29  2  0  0  0  0
 29 30  1  0  0  0  0
 30 31  2  0  0  0  0
 31 32  1  0  0  0  0
 32 33  2  0  0  0  0
 33 34  1  0  0  0  0
 34 35  2  0  0  0  0
M  END
$$$$

 OpenBabel10082008492D

 25 27  0  0  1  0  0  0  0  0999 V2000
    1.7321    2.0000    0.0000 C   0  0  0  0  0  0  0  0  0  0  0  0
    0.8660    1.5000    0.0000 C   0  0  0  0  0  0  0  0  0  0  0  0
    0.8660    0.5000    0.0000 N   0  0  0  0  0  0  0  0  0  0  0  0
    1.7321    0.0000    0.0000 C   0  0  0  0  0  0  0  0  0  0  0  0
    1.7321   -1.0000    0.0000 C   0  0  0  0  0  0  0  0  0  0  0  0
    2.5981   -1.5000    0.0000 C   0  0  0  0  0  0  0  0  0  0  0  0
    2.5981   -2.5000    0.0000 O   0  0  0  0  0  0  0  0  0  0  0  0
    3.4641   -1.0000    0.0000 O   0  0  0  0  0  0  0  0  0  0  0  0
    0.8660   -1.5000    0.0000 C   0  0  0  0  0  0  0  0  0  0  0  0
    0.8660   -2.5000    0.0000 O   0  0  0  0  0  0  0  0  0  0  0  0
    0.0000   -1.0000    0.0000 C   0  0  0  0  0  0  0  0  0  0  0  0
   -0.8660   -1.5000    0.0000 C   0  0  0  0  0  0  0  0  0  0  0  0
   -1.7321   -1.0000    0.0000 C   0  0  0  0  0  0  0  0  0  0  0  0
   -2.5981   -1.5000    0.0000 F   0  0  0  0  0  0  0  0  0  0  0  0
   -1.7321   -0.0000    0.0000 C   0  0  0  0  0  0  0  0  0  0  0  0
   -2.5981    0.5000    0.0000 N   0  0  0  0  0  0  0  0  0  0  0  0
   -3.4641   -0.0000    0.0000 C   0  0  0  0  0  0  0  0  0  0  0  0
   -4.3301    0.5000    0.0000 C   0  0  0  0  0  0  0  0  0  0  0  0
   -4.3301    1.5000    0.0000 N   0  0  0  0  0  0  0  0  0  0  0  0
   -3.4641    2.0000    0.0000 C   0  0  3  0  0  0  0  0  0  0  0  0
   -3.4641    3.0000    0.0000 C   0  0  0  0  0  0  0  0  0  0  0  0
   -2.5981    1.5000    0.0000 C   0  0  0  0  0  0  0  0  0  0  0  0
   -0.8660    0.5000    0.0000 C   0  0  0  0  0  0  0  0  0  0  0  0
   -0.8660    1.5000    0.0000 F   0  0  0  0  0  0  0  0  0  0  0  0
    0.0000   -0.0000    0.0000 C   0  0  0  0  0  0  0  0  0  0  0  0
  1  2  1  0  0  0  0
  2  3  1  0  0  0  0
  3 25  1  0  0  0  0
  3  4  1  0  0  0  0
  4  5  2  0  0  0  0
  5  6  1  0  0  0  0
  5  9  1  0  0  0  0
  6  7  2  0  0  0  0
  6  8  1  0  0  0  0
  9 10  2  0  0  0  0
  9 11  1  0  0  0  0
 11 25  1  0  0  0  0
 11 12  2  0  0  0  0
 12 13  1  0  0  0  0
 13 14  1  0  0  0  0
 13 15  2  0  0  0  0
 15 16  1  0  0  0  0
 15 23  1  0  0  0  0
 16 22  1  0  0  0  0
 16 17  1  0  0  0  0
 17 18  1  0  0  0  0
 18 19  1  0  0  0  0
 19 20  1  0  0  0  0
 20 21  1  0  0  0  0
 20 22  1  0  0  0  0
 23 24  1  0  0  0  0
 23 25  2  0  0  0  0
M  END
$$$$

 OpenBabel10082008492D

 25 27  0  0  0  0  0  0  0  0999 V2000
    2.5981   -2.5000    0.0000 C   0  0  0  0  0  0  0  0  0  0  0  0
    2.5981   -1.5000    0.0000 C   0  0  0  0  0  0  0  0  0  0  0  0
    1.7321   -1.0000    0.0000 N   0  0  0  0  0  0  0  0  0  0  0  0
    1.7321   -0.0000    0.0000 C   0  0  0  0  0  0  0  0  0  0  0  0
    2.5981    0.5000    0.0000 C   0  0  0  0  0  0  0  0  0  0  0  0
    0.8660   -1.5000    0.0000 C   0  0  0  0  0  0  0  0  0  0  0  0
    0.0000   -1.0000    0.0000 C   0  0  0  0  0  0  0  0  0  0  0  0
   -0.8660   -1.5000    0.0000 C   0  0  0  0  0  0  0  0  0  0  0  0
   -1.7321   -1.0000    0.0000 C   0  0  0  0  0  0  0  0  0  0  0  0
   -2.5981   -1.5000    0.0000 N   0  0  0  0  0  0  0  0  0  0  0  0
   -3.4641   -1.0000    0.0000 C   0  0  0  0  0  0  0  0  0  0  0  0
   -4.3301   -1.5000    0.0000 C   0  0  0  0  0  0  0  0  0  0  0  0
   -5.1962   -1.0000    0.0000 C   0  0  0  0  0  0  0  0  0  0  0  0
   -5.1962   -0.0000    0.0000 N   0  0  0  0  0  0  0  0  0  0  0  0
   -4.3301    0.5000    0.0000 C   0  0  0  0  0  0  0  0  0  0  0  0
   -4.3301    1.5000    0.0000 C   0  0  0  0  0  0  0  0  0  0  0  0
   -3.4641    2.0000    0.0000 C   0  0  0  0  0  0  0  0  0  0  0  0
   -3.4641    3.0000    0.0000 Cl  0  0  0  0  0  0  0  0  0  0  0  0
   -2.5981    1.5000    0.0000 C   0  0  0  0  0  0  0  0  0  0  0  0
   -2.5981    0.5000    0.0000 C   0  0  0  0  0  0  0  0  0  0  0  0
   -3.4641   -0.0000    0.0000 C   0  0  0  0  0  0  0  0  0  0  0  0
   -1.7321   -0.0000    0.0000 C   0  0  0  0  0  0  0  0  0  0  0  0
   -0.8660    0.5000    0.0000 C   0  0  0  0  0  0  0  0  0  0  0  0
    0.0000    0.0000    0.0000 C   0  0  0  0  0  0  0  0  0  0  0  0
    0.8660    0.5000    0.0000 O   0  0  0  0  0  0  0  0  0  0  0  0
  1  2  1  0  0  0  0
  2  3  1  0  0  0  0
  3  4  1  0  0  0  0
  3  6  1  0  0  0  0
  4  5  1  0  0  0  0
  6  7  1  0  0  0  0
  7 24  1  0  0  0  0
  7  8  2  0  0  0  0
  8  9  1  0  0  0  0
  9 10  1  0  0  0  0
  9 22  2  0  0  0  0
 10 11  1  0  0  0  0
 11 21  1  0  0  0  0
 11 12  2  0  0  0  0
 12 13  1  0  0  0  0
 13 14  2  0  0  0  0
 14 15  1  0  0  0  0
 15 21  1  0  0  0  0
 15 16  2  0  0  0  0
 16 17  1  0  0  0  0
 17 18  1  0  0  0  0
 17 19  2  0  0  0  0
 19 20  1  0  0  0  0
 20 21  2  0  0  0  0
 22 23  1  0  0  0  0
 23 24  2  0  0  0  0
 24 25  1  0  0  0  0
M  END
$$$$

 OpenBabel10082008492D

 37 41  0  0  0  0  0  0  0  0999 V2000
   -0.8660    0.5000    0.0000 C   0  0  0  0  0  0  0  0  0  0  0  0
   -0.8660    1.5000    0.0000 C   0  0  0  0  0  0  0  0  0  0  0  0
   -1.7321    2.0000    0.0000 C   0  0  0  0  0  0  0  0  0  0  0  0
   -1.7321    3.0000    0.0000 C   0  0  0  0  0  0  0  0  0  0  0  0
   -0.8660    3.5000    0.0000 C   0  0  0  0  0  0  0  0  0  0  0  0
   -0.8660    4.5000    0.0000 N   0  0  0  0  0  0  0  0  0  0  0  0
   -1.7321    5.0000    0.0000 C   0  0  0  0  0  0  0  0  0  0  0  0
   -1.7321    6.0000    0.0000 O   0  0  0  0  0  0  0  0  0  0  0  0
   -2.5981    4.5000    0.0000 C   0  0  0  0  0  0  0  0  0  0  0  0
   -2.5981    3.5000    0.0000 C   0  0  0  0  0  0  0  0  0  0  0  0
   -3.4641    3.0000    0.0000 C   0  0  0  0  0  0  0  0  0  0  0  0
   -4.3301    3.5000    0.0000 C   0  0  0  0  0  0  0  0  0  0  0  0
   -5.1962    3.0000    0.0000 C   0  0  0  0  0  0  0  0  0  0  0  0
   -6.0622    3.5000    0.0000 N   0  0  0  0  0  0  0  0  0  0  0  0
   -6.9282    3.0000    0.0000 C   0  0  0  0  0  0  0  0  0  0  0  0
   -7.7942    3.5000    0.0000 C   0  0  0  0  0  0  0  0  0  0  0  0
   -7.7942    4.5000    0.0000 N   0  0  0  0  0  0  0  0  0  0  0  0
   -8.6603    5.0000    0.0000 C   0  0  0  0  0  0  0  0  0  0  0  0
   -6.9282    5.0000    0.0000 C   0  0  0  0  0  0  0  0  0  0  0  0
   -6.0622    4.5000    0.0000 C   0  0  0  0  0  0  0  0  0  0  0  0
   -4.3301    4.5000    0.0000 C   0  0  0  0  0  0  0  0  0  0  0  0
   -3.4641    5.0000    0.0000 C   0  0  0  0  0  0  0  0  0  0  0  0
   -0.0000    3.0000    0.0000 C   0  0  0  0  0  0  0  0  0  0  0  0
   -0.0000    2.0000    0.0000 C   0  0  0  0  0  0  0  0  0  0  0  0
    0.8660    1.5000    0.0000 N   0  0  0  0  0  0  0  0  0  0  0  0
    0.8660    0.5000    0.0000 C   0  0  0  0  0  0  0  0  0  0  0  0
    1.7321    0.0000    0.0000 N   0  0  0  0  0  0  0  0  0  0  0  0
    1.7321   -1.0000    0.0000 C   0  0  0  0  0  0  0  0  0  0  0  0
    0.8660   -1.5000    0.0000 C   0  0  0  0  0  0  0  0  0  0  0  0
    0.0000   -1.0000    0.0000 C   0  0  0  0  0  0  0  0  0  0  0  0
   -0.8660   -1.5000    0.0000 C   0  0  0  0  0  0  0  0  0  0  0  0
   -0.8660   -2.5000    0.0000 C   0  0  0  0  0  0  0  0  0  0  0  0
   -1.7321   -3.0000    0.0000 C   0  0  0  0  0  0  0  0  0  0  0  0
   -2.5981   -2.5000    0.0000 C   0  0  0  0  0  0  0  0  0  0  0  0
   -2.5981   -1.5000    0.0000 N   0  0  0  0  0  0  0  0  0  0  0  0
   -1.7321   -1.0000    0.0000 C   0  0  0  0  0  0  0  0  0  0  0  0
   -0.0000   -0.0000    0.0000 N   0  0  0  0  0  0  0  0  0  0  0  0
  1  2  1  0  0  0  0
  2 24  1  0  0  0  0
  2  3  2  0  0  0  0
  3  4  1  0  0  0  0
  4  5  2  0  0  0  0
  5  6  1  0  0  0  0
  5 23  1  0  0  0  0
  6  7  1  0  0  0  0
  7  8  2  0  0  0  0
  7  9  1  0  0  0  0
  9 22  1  0  0  0  0
  9 10  2  0  0  0  0
 10 11  1  0  0  0  0
 11 12  2  0  0  0  0
 12 13  1  0  0  0  0
 12 21  1  0  0  0  0
 13 14  1  0  0  0  0
 14 20  1  0  0  0  0
 14 15  1  0  0  0  0
 15 16  1  0  0  0  0
 16 17  1  0  0  0  0
 17 18  1  0  0  0  0
 17 19  1  0  0  0  0
 19 20  1  0  0  0  0
 21 22  2  0  0  0  0
 23 24  2  0  0  0  0
 24 25  1  0  0  0  0
 25 26  1  0  0  0  0
 26 37  1  0  0  0  0
 26 27  2  0  0  0  0
 27 28  1  0  0  0  0
 28 29  2  0  0  0  0
 29 30  1  0  0  0  0
 30 31  1  0  0  0  0
 30 37  2  0  0  0  0
 31 36  1  0  0  0  0
 31 32  2  0  0  0  0
 32 33  1  0  0  0  0
 33 34  2  0  0  0  0
 34 35  1  0  0  0  0
 35 36  2  0  0  0  0
M  END
$$$$

 OpenBabel10082008492D

  8  8  0  0  0  0  0  0  0  0999 V2000
    0.2788   -1.7601    0.0000 C   0  0  0  0  0  0  0  0  0  0  0  0
   -0.3090   -0.9511    0.0000 N   0  0  0  0  0  0  0  0  0  0  0  0
   -1.3090   -0.9511    0.0000 C   0  0  0  0  0  0  0  0  0  0  0  0
   -1.6180   -0.0000    0.0000 C   0  0  0  0  0  0  0  0  0  0  0  0
   -0.8090    0.5878    0.0000 N   0  0  0  0  0  0  0  0  0  0  0  0
   -0.8090    1.5878    0.0000 H   0  0  0  0  0  0  0  0  0  0  0  0
   -0.0000   -0.0000    0.0000 C   0  0  0  0  0  0  0  0  0  0  0  0
    0.9511    0.3090    0.0000 S   0  0  0  0  0  0  0  0  0  0  0  0
  1  2  1  0  0  0  0
  2  7  1  0  0  0  0
  2  3  1  0  0  0  0
  3  4  2  0  0  0  0
  4  5  1  0  0  0  0
  5  6  1  0  0  0  0
  5  7  1  0  0  0  0
  7  8  2  0  0  0  0
M  END
$$$$

 OpenBabel10082008492D

 23 24  0  0  1  0  0  0  0  0999 V2000
   -3.3255    2.6228    0.0000 C   0  0  0  0  0  0  0  0  0  0  0  0
   -2.4942    2.1428    0.0000 C   0  0  0  0  0  0  0  0  0  0  0  0
   -1.6628    2.6228    0.0000 C   0  0  0  0  0  0  0  0  0  0  0  0
   -1.6628    3.5828    0.0000 O   0  0  0  0  0  0  0  0  0  0  0  0
   -0.0000    1.6628    0.0000 C   0  0  0  0  0  0  0  0  0  0  0  0
    0.4800    2.4942    0.0000 C   0  0  0  0  0  0  0  0  0  0  0  0
    0.0000    3.3255    0.0000 C   0  0  3  0  0  0  0  0  0  0  0  0
   -0.9600    3.3255    0.0000 C   0  0  0  0  0  0  0  0  0  0  0  0
    0.4800    4.1569    0.0000 N   0  0  0  0  0  0  0  0  0  0  0  0
    0.0000    4.9883    0.0000 C   0  0  0  0  0  0  0  0  0  0  0  0
    1.4400    4.1569    0.0000 C   0  0  0  0  0  0  0  0  0  0  0  0
    0.8314    1.1828    0.0000 C   0  0  0  0  0  0  0  0  0  0  0  0
    0.8314    0.2228    0.0000 C   0  0  0  0  0  0  0  0  0  0  0  0
    1.6628   -0.2572    0.0000 C   0  0  0  0  0  0  0  0  0  0  0  0
    2.4942    0.2228    0.0000 C   0  0  0  0  0  0  0  0  0  0  0  0
    2.4942    1.1828    0.0000 C   0  0  0  0  0  0  0  0  0  0  0  0
    1.6628    1.6628    0.0000 C   0  0  0  0  0  0  0  0  0  0  0  0
   -0.4800    0.8314    0.0000 C   0  0  0  0  0  0  0  0  0  0  0  0
   -1.4400    0.8314    0.0000 C   0  0  0  0  0  0  0  0  0  0  0  0
   -1.9200    0.0000    0.0000 C   0  0  0  0  0  0  0  0  0  0  0  0
   -1.4400   -0.8314    0.0000 C   0  0  0  0  0  0  0  0  0  0  0  0
   -0.4800   -0.8314    0.0000 C   0  0  0  0  0  0  0  0  0  0  0  0
    0.0000   -0.0000    0.0000 C   0  0  0  0  0  0  0  0  0  0  0  0
  1  2  1  0  0  0  0
  2  3  1  0  0  0  0
  3  4  2  0  0  0  0
  3  5  1  0  0  0  0
  5  6  1  0  0  0  0
  5 12  1  0  0  0  0
  5 18  1  0  0  0  0
  6  7  1  0  0  0  0
  7  8  1  0  0  0  0
  7  9  1  0  0  0  0
  9 10  1  0  0  0  0
  9 11  1  0  0  0  0
 12 17  1  0  0  0  0
 12 13  2  0  0  0  0
 13 14  1  0  0  0  0
 14 15  2  0  0  0  0
 15 16  1  0  0  0  0
 16 17  2  0  0  0  0
 18 23  1  0  0  0  0
 18 19  2  0  0  0  0
 19 20  1  0  0  0  0
 20 21  2  0  0  0  0
 21 22  1  0  0  0  0
 22 23  2  0  0  0  0
M  END
$$$$

 OpenBabel10082008492D

 19 21  0  0  0  0  0  0  0  0999 V2000
    4.4152   -3.3090    0.0000 C   0  0  0  0  0  0  0  0  0  0  0  0
    3.5491   -2.8090    0.0000 C   0  0  0  0  0  0  0  0  0  0  0  0
    3.5491   -1.8090    0.0000 N   0  0  0  0  0  0  0  0  0  0  0  0
    4.4152   -1.3090    0.0000 N   0  0  0  0  0  0  0  0  0  0  0  0
    4.4152   -0.3090    0.0000 C   0  0  0  0  0  0  0  0  0  0  0  0
    5.2812    0.1910    0.0000 C   0  0  0  0  0  0  0  0  0  0  0  0
    6.1472   -0.3090    0.0000 O   0  0  0  0  0  0  0  0  0  0  0  0
    5.2812    1.1910    0.0000 O   0  0  0  0  0  0  0  0  0  0  0  0
    3.5491    0.1910    0.0000 C   0  0  0  0  0  0  0  0  0  0  0  0
    3.5491    1.1910    0.0000 O   0  0  0  0  0  0  0  0  0  0  0  0
    2.6831   -0.3090    0.0000 C   0  0  0  0  0  0  0  0  0  0  0  0
    1.8171    0.1910    0.0000 C   0  0  0  0  0  0  0  0  0  0  0  0
    0.9511   -0.3090    0.0000 C   0  0  0  0  0  0  0  0  0  0  0  0
    0.9511   -1.3090    0.0000 C   0  0  0  0  0  0  0  0  0  0  0  0
    1.8171   -1.8090    0.0000 C   0  0  0  0  0  0  0  0  0  0  0  0
    2.6831   -1.3090    0.0000 C   0  0  0  0  0  0  0  0  0  0  0  0
    0.0000   -1.6180    0.0000 O   0  0  0  0  0  0  0  0  0  0  0  0
   -0.5878   -0.8090    0.0000 C   0  0  0  0  0  0  0  0  0  0  0  0
    0.0000   -0.0000    0.0000 O   0  0  0  0  0  0  0  0  0  0  0  0
  1  2  1  0  0  0  0
  2  3  1  0  0  0  0
  3 16  1  0  0  0  0
  3  4  1  0  0  0  0
  4  5  2  0  0  0  0
  5  6  1  0  0  0  0
  5  9  1  0  0  0  0
  6  7  2  0  0  0  0
  6  8  1  0  0  0  0
  9 10  2  0  0  0  0
  9 11  1  0  0  0  0
 11 16  1  0  0  0  0
 11 12  2  0  0  0  0
 12 13  1  0  0  0  0
 13 19  1  0  0  0  0
 13 14  2  0  0  0  0
 14 15  1  0  0  0  0
 14 17  1  0  0  0  0
 15 16  2  0  0  0  0
 17 18  1  0  0  0  0
 18 19  1  0  0  0  0
M  END
$$$$

 OpenBabel10082008492D

 36 38  0  0  1  0  0  0  0  0999 V2000
   -3.0981    2.3660    0.0000 C   0  0  0  0  0  0  0  0  0  0  0  0
   -2.5981    1.5000    0.0000 C   0  0  2  0  0  0  0  0  0  0  0  0
   -3.5981    1.5000    0.0000 H   0  0  0  0  0  0  0  0  0  0  0  0
   -2.5981    0.5000    0.0000 C   0  0  0  0  0  0  0  0  0  0  0  0
   -3.4641    0.0000    0.0000 C   0  0  0  0  0  0  0  0  0  0  0  0
   -4.3301    0.5000    0.0000 C   0  0  0  0  0  0  0  0  0  0  0  0
   -5.1962    0.0000    0.0000 C   0  0  0  0  0  0  0  0  0  0  0  0
   -5.1962   -1.0000    0.0000 C   0  0  0  0  0  0  0  0  0  0  0  0
   -4.3301   -1.5000    0.0000 C   0  0  0  0  0  0  0  0  0  0  0  0
   -4.3301   -2.5000    0.0000 C   0  0  0  0  0  0  0  0  0  0  0  0
   -5.1962   -3.0000    0.0000 N   0  0  0  0  0  0  0  0  0  0  0  0
   -3.4641   -3.0000    0.0000 O   0  0  0  0  0  0  0  0  0  0  0  0
   -3.4641   -1.0000    0.0000 C   0  0  0  0  0  0  0  0  0  0  0  0
   -6.1472   -1.3090    0.0000 N   0  0  0  0  0  0  0  0  0  0  0  0
   -6.4562   -2.2601    0.0000 C   0  0  0  0  0  0  0  0  0  0  0  0
   -7.4344   -2.4680    0.0000 C   0  0  0  0  0  0  0  0  0  0  0  0
   -8.1035   -1.7248    0.0000 C   0  0  0  0  0  0  0  0  0  0  0  0
   -7.7945   -0.7738    0.0000 O   0  0  0  0  0  0  0  0  0  0  0  0
   -6.7350   -0.5000    0.0000 C   0  0  0  0  0  0  0  0  0  0  0  0
   -6.1472    0.3090    0.0000 C   0  0  0  0  0  0  0  0  0  0  0  0
   -1.7321    2.0000    0.0000 N   0  0  0  0  0  0  0  0  0  0  0  0
   -0.8660    1.5000    0.0000 C   0  0  0  0  0  0  0  0  0  0  0  0
    0.0000    2.0000    0.0000 C   0  0  0  0  0  0  0  0  0  0  0  0
    0.8660    1.5000    0.0000 O   0  0  0  0  0  0  0  0  0  0  0  0
    0.8660    0.5000    0.0000 C   0  0  0  0  0  0  0  0  0  0  0  0
    1.7321   -0.0000    0.0000 C   0  0  0  0  0  0  0  0  0  0  0  0
    1.7321   -1.0000    0.0000 C   0  0  0  0  0  0  0  0  0  0  0  0
    0.8660   -1.5000    0.0000 C   0  0  0  0  0  0  0  0  0  0  0  0
   -0.0000   -1.0000    0.0000 C   0  0  0  0  0  0  0  0  0  0  0  0
    0.0000   -0.0000    0.0000 C   0  0  0  0  0  0  0  0  0  0  0  0
   -0.8660    0.5000    0.0000 O   0  0  0  0  0  0  0  0  0  0  0  0
   -1.7321    0.0000    0.0000 C   0  0  0  0  0  0  0  0  0  0  0  0
   -1.7321   -1.0000    0.0000 C   0  0  0  0  0  0  0  0  0  0  0  0
   -1.2321   -1.8660    0.0000 F   0  0  0  0  0  0  0  0  0  0  0  0
   -0.7321   -1.0000    0.0000 F   0  0  0  0  0  0  0  0  0  0  0  0
   -2.5981   -1.5000    0.0000 F   0  0  0  0  0  0  0  0  0  0  0  0
  1  2  1  0  0  0  0
  2  3  1  6  0  0  0
  2  4  1  0  0  0  0
  2 21  1  0  0  0  0
  4  5  1  0  0  0  0
  5 13  1  0  0  0  0
  5  6  2  0  0  0  0
  6  7  1  0  0  0  0
  7 20  1  0  0  0  0
  7  8  2  0  0  0  0
  8  9  1  0  0  0  0
  8 14  1  0  0  0  0
  9 10  1  0  0  0  0
  9 13  2  0  0  0  0
 10 11  1  0  0  0  0
 10 12  2  0  0  0  0
 14 15  1  0  0  0  0
 14 19  1  0  0  0  0
 15 16  1  0  0  0  0
 16 17  1  0  0  0  0
 17 18  1  0  0  0  0
 19 20  1  0  0  0  0
 21 22  1  0  0  0  0
 22 23  1  0  0  0  0
 23 24  1  0  0  0  0
 24 25  1  0  0  0  0
 25 30  1  0  0  0  0
 25 26  2  0  0  0  0
 26 27  1  0  0  0  0
 27 28  2  0  0  0  0
 28 29  1  0  0  0  0
 29 30  2  0  0  0  0
 30 31  1  0  0  0  0
 31 32  1  0  0  0  0
 32 33  1  0  0  0  0
 33 34  1  0  0  0  0
 33 35  1  0  0  0  0
 33 36  1  0  0  0  0
M  END
$$$$

 OpenBabel10082008492D

 43 46  0  0  1  0  0  0  0  0999 V2000
   -2.5823   -0.7045    0.0000 C   0  0  0  0  0  0  0  0  0  0  0  0
   -1.5878   -0.8090    0.0000 C   0  0  0  0  0  0  0  0  0  0  0  0
   -1.1810   -1.7226    0.0000 C   0  0  0  0  0  0  0  0  0  0  0  0
   -1.0000   -0.0000    0.0000 C   0  0  0  0  0  0  0  0  0  0  0  0
   -1.3090    0.9511    0.0000 C   0  0  0  0  0  0  0  0  0  0  0  0
   -2.2601    1.2601    0.0000 C   0  0  0  0  0  0  0  0  0  0  0  0
   -2.4680    2.2382    0.0000 O   0  0  0  0  0  0  0  0  0  0  0  0
   -3.0032    0.5909    0.0000 N   0  0  0  0  0  0  0  0  0  0  0  0
   -3.9543    0.9000    0.0000 C   0  0  0  0  0  0  0  0  0  0  0  0
   -4.6974    0.2308    0.0000 C   0  0  0  0  0  0  0  0  0  0  0  0
   -5.6485    0.5398    0.0000 C   0  0  0  0  0  0  0  0  0  0  0  0
   -5.8564    1.5180    0.0000 C   0  0  0  0  0  0  0  0  0  0  0  0
   -5.1132    2.1871    0.0000 C   0  0  0  0  0  0  0  0  0  0  0  0
   -4.1622    1.8781    0.0000 C   0  0  0  0  0  0  0  0  0  0  0  0
   -0.5000    1.5388    0.0000 C   0  0  0  0  0  0  0  0  0  0  0  0
   -0.5000    2.5388    0.0000 C   0  0  0  0  0  0  0  0  0  0  0  0
   -1.3660    3.0388    0.0000 C   0  0  0  0  0  0  0  0  0  0  0  0
   -1.3660    4.0388    0.0000 C   0  0  0  0  0  0  0  0  0  0  0  0
   -0.5000    4.5388    0.0000 C   0  0  0  0  0  0  0  0  0  0  0  0
    0.3660    4.0388    0.0000 C   0  0  0  0  0  0  0  0  0  0  0  0
    0.3660    3.0388    0.0000 C   0  0  0  0  0  0  0  0  0  0  0  0
    0.3090    0.9511    0.0000 C   0  0  0  0  0  0  0  0  0  0  0  0
    1.2601    1.2601    0.0000 C   0  0  0  0  0  0  0  0  0  0  0  0
    1.4680    2.2382    0.0000 C   0  0  0  0  0  0  0  0  0  0  0  0
    2.4190    2.5472    0.0000 C   0  0  0  0  0  0  0  0  0  0  0  0
    3.1622    1.8781    0.0000 C   0  0  0  0  0  0  0  0  0  0  0  0
    4.1132    2.1871    0.0000 F   0  0  0  0  0  0  0  0  0  0  0  0
    2.9543    0.9000    0.0000 C   0  0  0  0  0  0  0  0  0  0  0  0
    2.0032    0.5909    0.0000 C   0  0  0  0  0  0  0  0  0  0  0  0
    0.0000   -0.0000    0.0000 N   0  0  0  0  0  0  0  0  0  0  0  0
    0.5878   -0.8090    0.0000 C   0  0  0  0  0  0  0  0  0  0  0  0
    1.5823   -0.7045    0.0000 C   0  0  0  0  0  0  0  0  0  0  0  0
    2.1701   -1.5135    0.0000 C   0  0  1  0  0  0  0  0  0  0  0  0
    3.0836   -1.9202    0.0000 H   0  0  0  0  0  0  0  0  0  0  0  0
    2.9791   -0.9257    0.0000 O   0  0  0  0  0  0  0  0  0  0  0  0
    1.7634   -2.4271    0.0000 C   0  0  0  0  0  0  0  0  0  0  0  0
    2.3511   -3.2361    0.0000 C   0  0  1  0  0  0  0  0  0  0  0  0
    3.2647   -3.6428    0.0000 H   0  0  0  0  0  0  0  0  0  0  0  0
    3.1602   -2.6483    0.0000 O   0  0  0  0  0  0  0  0  0  0  0  0
    1.9444   -4.1496    0.0000 C   0  0  0  0  0  0  0  0  0  0  0  0
    2.5322   -4.9586    0.0000 C   0  0  0  0  0  0  0  0  0  0  0  0
    2.1255   -5.8722    0.0000 O   0  0  0  0  0  0  0  0  0  0  0  0
    3.5267   -4.8541    0.0000 O   0  0  0  0  0  0  0  0  0  0  0  0
  1  2  1  0  0  0  0
  2  3  1  0  0  0  0
  2  4  1  0  0  0  0
  4 30  1  0  0  0  0
  4  5  2  0  0  0  0
  5  6  1  0  0  0  0
  5 15  1  0  0  0  0
  6  7  2  0  0  0  0
  6  8  1  0  0  0  0
  8  9  1  0  0  0  0
  9 14  1  0  0  0  0
  9 10  2  0  0  0  0
 10 11  1  0  0  0  0
 11 12  2  0  0  0  0
 12 13  1  0  0  0  0
 13 14  2  0  0  0  0
 15 16  1  0  0  0  0
 15 22  2  0  0  0  0
 16 21  1  0  0  0  0
 16 17  2  0  0  0  0
 17 18  1  0  0  0  0
 18 19  2  0  0  0  0
 19 20  1  0  0  0  0
 20 21  2  0  0  0  0
 22 23  1  0  0  0  0
 22 30  1  0  0  0  0
 23 29  1  0  0  0  0
 23 24  2  0  0  0  0
 24 25  1  0  0  0  0
 25 26  2  0  0  0  0
 26 27  1  0  0  0  0
 26 28  1  0  0  0  0
 28 29  2  0  0  0  0
 30 31  1  0  0  0  0
 31 32  1  0  0  0  0
 32 33  1  0  0  0  0
 33 34  1  6  0  0  0
 33 35  1  0  0  0  0
 33 36  1  0  0  0  0
 36 37  1  0  0  0  0
 37 38  1  6  0  0  0
 37 39  1  0  0  0  0
 37 40  1  0  0  0  0
 40 41  1  0  0  0  0
 41 42  2  0  0  0  0
 41 43  1  0  0  0  0
M  END
$$$$

 OpenBabel10082008492D

  5  3  0  0  0  0  0  0  0  0999 V2000
    2.2321   -2.0000    0.0000 O   0  0  0  0  0  0  0  0  0  0  0  0
    1.3660   -1.5000    0.0000 C   0  0  0  0  0  0  0  0  0  0  0  0
    1.3660   -0.5000    0.0000 O   0  5  0  0  0  0  0  0  0  0  0  0
    0.5000   -2.0000    0.0000 O   0  5  0  0  0  0  0  0  0  0  0  0
   -1.1899   -0.5367    0.0000 Ca  0  2  0  0  0 15  0  0  0  0  0  0
  1  2  2  0  0  0  0
  2  3  1  0  0  0  0
  2  4  1  0  0  0  0
M  CHG  3   3  -1   4  -1   5   2
M  END
$$$$

 OpenBabel10082008492D

 25 27  0  0  1  0  0  0  0  0999 V2000
    1.7321   -1.0000    0.0000 C   0  0  0  0  0  0  0  0  0  0  0  0
    0.8660   -1.5000    0.0000 C   0  0  0  0  0  0  0  0  0  0  0  0
   -0.0000   -1.0000    0.0000 C   0  0  0  0  0  0  0  0  0  0  0  0
   -0.8660   -1.5000    0.0000 C   0  0  0  0  0  0  0  0  0  0  0  0
   -1.7321   -1.0000    0.0000 C   0  0  0  0  0  0  0  0  0  0  0  0
   -1.7321    0.0000    0.0000 C   0  0  0  0  0  0  0  0  0  0  0  0
   -2.5981    0.5000    0.0000 C   0  0  0  0  0  0  0  0  0  0  0  0
   -3.4641    0.0000    0.0000 C   0  0  0  0  0  0  0  0  0  0  0  0
   -4.3301    0.5000    0.0000 O   0  0  0  0  0  0  0  0  0  0  0  0
   -5.1962    0.0000    0.0000 C   0  0  0  0  0  0  0  0  0  0  0  0
   -5.1962   -1.0000    0.0000 C   0  0  0  0  0  0  0  0  0  0  0  0
   -6.0622   -1.5000    0.0000 C   0  0  0  0  0  0  0  0  0  0  0  0
   -6.9282   -1.0000    0.0000 C   0  0  0  0  0  0  0  0  0  0  0  0
   -7.7942   -1.5000    0.0000 C   0  0  0  0  0  0  0  0  0  0  0  0
   -8.6603   -1.0000    0.0000 C   0  0  3  0  0  0  0  0  0  0  0  0
   -9.5738   -1.4067    0.0000 S   0  0  0  0  0  0  0  0  0  0  0  0
  -10.2429   -0.6636    0.0000 C   0  0  0  0  0  0  0  0  0  0  0  0
  -11.2375   -0.7681    0.0000 O   0  0  0  0  0  0  0  0  0  0  0  0
   -9.7429    0.2024    0.0000 N   0  0  0  0  0  0  0  0  0  0  0  0
   -8.7648   -0.0055    0.0000 C   0  0  0  0  0  0  0  0  0  0  0  0
   -8.0216    0.6637    0.0000 O   0  0  0  0  0  0  0  0  0  0  0  0
   -6.9282    0.0000    0.0000 C   0  0  0  0  0  0  0  0  0  0  0  0
   -6.0622    0.5000    0.0000 C   0  0  0  0  0  0  0  0  0  0  0  0
   -0.8660    0.5000    0.0000 N   0  0  0  0  0  0  0  0  0  0  0  0
    0.0000    0.0000    0.0000 C   0  0  0  0  0  0  0  0  0  0  0  0
  1  2  1  0  0  0  0
  2  3  1  0  0  0  0
  3 25  1  0  0  0  0
  3  4  2  0  0  0  0
  4  5  1  0  0  0  0
  5  6  2  0  0  0  0
  6  7  1  0  0  0  0
  6 24  1  0  0  0  0
  7  8  1  0  0  0  0
  8  9  1  0  0  0  0
  9 10  1  0  0  0  0
 10 23  1  0  0  0  0
 10 11  2  0  0  0  0
 11 12  1  0  0  0  0
 12 13  2  0  0  0  0
 13 14  1  0  0  0  0
 13 22  1  0  0  0  0
 14 15  1  0  0  0  0
 15 20  1  0  0  0  0
 15 16  1  0  0  0  0
 16 17  1  0  0  0  0
 17 18  2  0  0  0  0
 17 19  1  0  0  0  0
 19 20  1  0  0  0  0
 20 21  2  0  0  0  0
 22 23  2  0  0  0  0
 24 25  2  0  0  0  0
M  END
$$$$

 OpenBabel10082008492D

 17 17  0  0  0  0  0  0  0  0999 V2000
    1.0000   -1.0000    0.0000 O   0  0  0  0  0  0  0  0  0  0  0  0
    1.0000    0.0000    0.0000 P   0  0  0  0  0  0  0  0  0  0  0  0
    2.0000    0.0000    0.0000 O   0  0  0  0  0  0  0  0  0  0  0  0
    1.0000    1.0000    0.0000 O   0  0  0  0  0  0  0  0  0  0  0  0
    0.0000    0.0000    0.0000 C   0  0  0  0  0  0  0  0  0  0  0  0
   -0.0000    1.0000    0.0000 O   0  0  0  0  0  0  0  0  0  0  0  0
   -1.0000   -0.0000    0.0000 C   0  0  0  0  0  0  0  0  0  0  0  0
   -1.5000   -0.8660    0.0000 C   0  0  0  0  0  0  0  0  0  0  0  0
   -1.0000   -1.7321    0.0000 C   0  0  0  0  0  0  0  0  0  0  0  0
   -1.5000   -2.5981    0.0000 C   0  0  0  0  0  0  0  0  0  0  0  0
   -2.5000   -2.5981    0.0000 C   0  0  0  0  0  0  0  0  0  0  0  0
   -3.0000   -1.7321    0.0000 N   0  0  0  0  0  0  0  0  0  0  0  0
   -2.5000   -0.8660    0.0000 C   0  0  0  0  0  0  0  0  0  0  0  0
    0.0000   -1.0000    0.0000 P   0  0  0  0  0  0  0  0  0  0  0  0
   -1.0000   -1.0000    0.0000 O   0  0  0  0  0  0  0  0  0  0  0  0
    0.0000   -2.0000    0.0000 O   0  0  0  0  0  0  0  0  0  0  0  0
    1.0000   -1.0000    0.0000 O   0  0  0  0  0  0  0  0  0  0  0  0
  1  2  2  0  0  0  0
  2  3  1  0  0  0  0
  2  4  1  0  0  0  0
  2  5  1  0  0  0  0
  5  6  1  0  0  0  0
  5  7  1  0  0  0  0
  5 14  1  0  0  0  0
  7  8  1  0  0  0  0
  8 13  1  0  0  0  0
  8  9  2  0  0  0  0
  9 10  1  0  0  0  0
 10 11  2  0  0  0  0
 11 12  1  0  0  0  0
 12 13  2  0  0  0  0
 14 15  2  0  0  0  0
 14 16  1  0  0  0  0
 14 17  1  0  0  0  0
M  END
$$$$

 OpenBabel10082008492D

 12 13  0  0  0  0  0  0  0  0999 V2000
    0.8660    1.5000    0.0000 O   0  0  0  0  0  0  0  0  0  0  0  0
    0.8660    0.5000    0.0000 C   0  0  0  0  0  0  0  0  0  0  0  0
    1.7321    0.0000    0.0000 N   0  0  0  0  0  0  0  0  0  0  0  0
    1.7321   -1.0000    0.0000 C   0  0  0  0  0  0  0  0  0  0  0  0
    0.8660   -1.5000    0.0000 N   0  0  0  0  0  0  0  0  0  0  0  0
   -0.0000   -1.0000    0.0000 C   0  0  0  0  0  0  0  0  0  0  0  0
   -0.9511   -1.3090    0.0000 N   0  0  0  0  0  0  0  0  0  0  0  0
   -1.2601   -2.2601    0.0000 H   0  0  0  0  0  0  0  0  0  0  0  0
   -1.5388   -0.5000    0.0000 N   0  0  0  0  0  0  0  0  0  0  0  0
   -2.5388   -0.5000    0.0000 H   0  0  0  0  0  0  0  0  0  0  0  0
   -0.9511    0.3090    0.0000 C   0  0  0  0  0  0  0  0  0  0  0  0
   -0.0000   -0.0000    0.0000 C   0  0  0  0  0  0  0  0  0  0  0  0
  1  2  2  0  0  0  0
  2 12  1  0  0  0  0
  2  3  1  0  0  0  0
  3  4  2  0  0  0  0
  4  5  1  0  0  0  0
  5  6  2  0  0  0  0
  6 12  1  0  0  0  0
  6  7  1  0  0  0  0
  7  8  1  0  0  0  0
  7  9  1  0  0  0  0
  9 10  1  0  0  0  0
  9 11  1  0  0  0  0
 11 12  2  0  0  0  0
M  END
$$$$

 OpenBabel10082008492D

 43 47  0  0  1  0  0  0  0  0999 V2000
    9.0253    4.0810    0.0000 N   0  0  0  0  0  0  0  0  0  0  0  0
    8.2976    3.4258    0.0000 C   0  0  0  0  0  0  0  0  0  0  0  0
    7.5699    2.7706    0.0000 C   0  0  0  0  0  0  0  0  0  0  0  0
    7.7735    1.8128    0.0000 C   0  0  0  0  0  0  0  0  0  0  0  0
    7.0458    1.1576    0.0000 C   0  0  0  0  0  0  0  0  0  0  0  0
    6.1146    1.4602    0.0000 N   0  0  0  0  0  0  0  0  0  0  0  0
    5.9110    2.4180    0.0000 C   0  0  0  0  0  0  0  0  0  0  0  0
    4.9798    2.7206    0.0000 N   0  0  0  0  0  0  0  0  0  0  0  0
    4.6772    3.6518    0.0000 C   0  0  0  0  0  0  0  0  0  0  0  0
    5.2527    4.4440    0.0000 O   0  0  0  0  0  0  0  0  0  0  0  0
    3.6980    3.6518    0.0000 C   0  0  0  0  0  0  0  0  0  0  0  0
    3.3955    2.7206    0.0000 C   0  0  0  0  0  0  0  0  0  0  0  0
    4.1876    2.1450    0.0000 C   0  0  1  0  0  0  0  0  0  0  0  0
    5.0039    1.6042    0.0000 H   0  0  0  0  0  0  0  0  0  0  0  0
    3.4952    1.4527    0.0000 C   0  0  0  0  0  0  0  0  0  0  0  0
    2.5494    1.7061    0.0000 O   0  0  0  0  0  0  0  0  0  0  0  0
    4.0021   -0.4389    0.0000 N   0  0  0  0  0  0  0  0  0  0  0  0
    4.9479   -0.6924    0.0000 C   0  0  0  0  0  0  0  0  0  0  0  0
    5.6403   -0.0000    0.0000 C   0  0  0  0  0  0  0  0  0  0  0  0
    6.5861   -0.2534    0.0000 N   0  0  0  0  0  0  0  0  0  0  0  0
    6.8395   -1.1992    0.0000 C   0  0  0  0  0  0  0  0  0  0  0  0
    6.1471   -1.8916    0.0000 C   0  0  0  0  0  0  0  0  0  0  0  0
    6.4006   -2.8374    0.0000 F   0  0  0  0  0  0  0  0  0  0  0  0
    5.2013   -1.6382    0.0000 C   0  0  0  0  0  0  0  0  0  0  0  0
    3.3097   -1.1313    0.0000 C   0  0  2  0  0  0  0  0  0  0  0  0
    4.0021   -1.8237    0.0000 H   0  0  0  0  0  0  0  0  0  0  0  0
    2.6173   -0.4389    0.0000 C   0  0  0  0  0  0  0  0  0  0  0  0
    2.8708    0.5069    0.0000 O   0  0  0  0  0  0  0  0  0  0  0  0
    1.6715   -0.6924    0.0000 N   0  0  0  0  0  0  0  0  0  0  0  0
    0.9792   -0.0000    0.0000 C   0  0  0  0  0  0  0  0  0  0  0  0
    0.0000   -0.0000    0.0000 C   0  0  0  0  0  0  0  0  0  0  0  0
    0.0000    0.9792    0.0000 C   0  0  0  0  0  0  0  0  0  0  0  0
   -0.2534    1.9250    0.0000 F   0  0  0  0  0  0  0  0  0  0  0  0
   -0.9458    1.2326    0.0000 F   0  0  0  0  0  0  0  0  0  0  0  0
    0.9792    0.9792    0.0000 C   0  0  0  0  0  0  0  0  0  0  0  0
    2.6173   -1.8237    0.0000 C   0  0  0  0  0  0  0  0  0  0  0  0
    1.6715   -1.5703    0.0000 C   0  0  0  0  0  0  0  0  0  0  0  0
    0.9792   -2.2626    0.0000 C   0  0  0  0  0  0  0  0  0  0  0  0
    1.2326   -3.2084    0.0000 C   0  0  0  0  0  0  0  0  0  0  0  0
    2.1784   -3.4619    0.0000 C   0  0  0  0  0  0  0  0  0  0  0  0
    2.8708   -2.7695    0.0000 C   0  0  0  0  0  0  0  0  0  0  0  0
    3.8166   -3.0229    0.0000 Cl  0  0  0  0  0  0  0  0  0  0  0  0
    6.6387    3.0732    0.0000 C   0  0  0  0  0  0  0  0  0  0  0  0
  1  2  3  0  0  0  0
  2  3  1  0  0  0  0
  3 43  1  0  0  0  0
  3  4  2  0  0  0  0
  4  5  1  0  0  0  0
  5  6  2  0  0  0  0
  6  7  1  0  0  0  0
  7  8  1  0  0  0  0
  7 43  2  0  0  0  0
  8 13  1  0  0  0  0
  8  9  1  0  0  0  0
  9 10  2  0  0  0  0
  9 11  1  0  0  0  0
 11 12  1  0  0  0  0
 12 13  1  0  0  0  0
 13 14  1  1  0  0  0
 13 15  1  0  0  0  0
 15 16  2  0  0  0  0
 15 17  1  0  0  0  0
 17 18  1  0  0  0  0
 17 25  1  0  0  0  0
 18 24  1  0  0  0  0
 18 19  2  0  0  0  0
 19 20  1  0  0  0  0
 20 21  2  0  0  0  0
 21 22  1  0  0  0  0
 22 23  1  0  0  0  0
 22 24  2  0  0  0  0
 25 26  1  6  0  0  0
 25 27  1  0  0  0  0
 25 36  1  0  0  0  0
 27 28  2  0  0  0  0
 27 29  1  0  0  0  0
 29 30  1  0  0  0  0
 30 35  1  0  0  0  0
 30 31  1  0  0  0  0
 31 32  1  0  0  0  0
 32 33  1  0  0  0  0
 32 34  1  0  0  0  0
 32 35  1  0  0  0  0
 36 41  1  0  0  0  0
 36 37  2  0  0  0  0
 37 38  1  0  0  0  0
 38 39  2  0  0  0  0
 39 40  1  0  0  0  0
 40 41  2  0  0  0  0
 41 42  1  0  0  0  0
M  END
$$$$

 OpenBabel10082008492D

 13 15  0  0  1  0  0  0  0  0999 V2000
    3.8313    1.1806    0.0000 C   0  0  0  0  0  0  0  0  0  0  0  0
    2.8587    1.2829    0.0000 C   0  0  3  0  0  0  0  0  0  0  0  0
    2.2042    0.5561    0.0000 O   0  0  0  0  0  0  0  0  0  0  0  0
    1.3108    0.9539    0.0000 C   0  0  3  0  0  0  0  0  0  0  0  0
    1.4131    1.9266    0.0000 C   0  0  0  0  0  0  0  0  0  0  0  0
    2.3697    2.1299    0.0000 S   0  0  0  0  0  0  0  0  0  0  0  0
    1.3108   -0.1208    0.0000 C   0  0  0  0  0  0  0  0  0  0  0  0
    0.3801   -0.6583    0.0000 N   0  0  3  0  0  0  0  0  0  0  0  0
   -0.5508   -0.1208    0.0000 C   0  0  0  0  0  0  0  0  0  0  0  0
   -0.5508    0.9539    0.0000 C   0  0  0  0  0  0  0  0  0  0  0  0
    0.3801    1.4914    0.0000 C   0  0  3  0  0  0  0  0  0  0  0  0
   -0.0000    0.8331    0.0000 C   0  0  0  0  0  0  0  0  0  0  0  0
    0.0000   -0.0000    0.0000 C   0  0  0  0  0  0  0  0  0  0  0  0
  1  2  1  0  0  0  0
  2  6  1  0  0  0  0
  2  3  1  0  0  0  0
  3  4  1  0  0  0  0
  4 11  1  0  0  0  0
  4  5  1  0  0  0  0
  4  7  1  0  0  0  0
  5  6  1  0  0  0  0
  7  8  1  0  0  0  0
  8 13  1  0  0  0  0
  8  9  1  0  0  0  0
  9 10  1  0  0  0  0
 10 11  1  0  0  0  0
 11 12  1  0  0  0  0
 12 13  1  0  0  0  0
M  END
$$$$

 OpenBabel10082008492D

 21 23  0  0  1  0  0  0  0  0999 V2000
    4.7298    0.0003    0.0000 C   0  0  0  0  0  0  0  0  0  0  0  0
    3.9414    0.4553    0.0000 C   0  0  0  0  0  0  0  0  0  0  0  0
    3.9413    1.3656    0.0000 C   0  0  0  0  0  0  0  0  0  0  0  0
    3.1531    0.0001    0.0000 C   0  0  0  0  0  0  0  0  0  0  0  0
    2.3648    0.4552    0.0000 C   0  0  0  0  0  0  0  0  0  0  0  0
    1.5765   -0.0000    0.0000 N   0  0  0  0  0  0  0  0  0  0  0  0
    1.5767   -0.9103    0.0000 C   0  0  0  0  0  0  0  0  0  0  0  0
    0.7882   -1.3655    0.0000 C   0  0  0  0  0  0  0  0  0  0  0  0
   -0.0002   -0.9104    0.0000 C   0  0  3  0  0  0  0  0  0  0  0  0
   -0.0004   -1.8207    0.0000 C   0  0  0  0  0  0  0  0  0  0  0  0
   -0.7883   -0.4553    0.0000 C   0  0  0  0  0  0  0  0  0  0  0  0
   -1.5768   -0.9106    0.0000 C   0  0  0  0  0  0  0  0  0  0  0  0
   -2.3653   -0.4554    0.0000 C   0  0  0  0  0  0  0  0  0  0  0  0
   -3.1536   -0.9106    0.0000 O   0  0  0  0  0  0  0  0  0  0  0  0
   -2.3654    0.4551    0.0000 C   0  0  0  0  0  0  0  0  0  0  0  0
   -1.5769    0.9104    0.0000 C   0  0  0  0  0  0  0  0  0  0  0  0
   -0.7884    0.4552    0.0000 C   0  0  0  0  0  0  0  0  0  0  0  0
    0.0001    0.9101    0.0000 C   0  0  0  0  0  0  0  0  0  0  0  0
    0.7882    0.4551    0.0000 C   0  0  3  0  0  0  0  0  0  0  0  0
    0.0000   -0.0000    0.0000 C   0  0  3  0  0  0  0  0  0  0  0  0
   -0.7883    0.4552    0.0000 C   0  0  0  0  0  0  0  0  0  0  0  0
  1  2  1  0  0  0  0
  2  3  1  0  0  0  0
  2  4  2  0  0  0  0
  4  5  1  0  0  0  0
  5  6  1  0  0  0  0
  6 19  1  0  0  0  0
  6  7  1  0  0  0  0
  7  8  1  0  0  0  0
  8  9  1  0  0  0  0
  9 20  1  0  0  0  0
  9 10  1  0  0  0  0
  9 11  1  0  0  0  0
 11 17  1  0  0  0  0
 11 12  2  0  0  0  0
 12 13  1  0  0  0  0
 13 14  1  0  0  0  0
 13 15  2  0  0  0  0
 15 16  1  0  0  0  0
 16 17  2  0  0  0  0
 17 18  1  0  0  0  0
 18 19  1  0  0  0  0
 19 20  1  0  0  0  0
 20 21  1  0  0  0  0
M  END
$$$$

 OpenBabel10082008492D

 25 26  0  0  0  0  0  0  0  0999 V2000
   -6.0000   -2.7321    0.0000 C   0  0  0  0  0  0  0  0  0  0  0  0
   -5.5000   -3.5981    0.0000 C   0  0  0  0  0  0  0  0  0  0  0  0
   -4.5000   -3.5981    0.0000 C   0  0  0  0  0  0  0  0  0  0  0  0
   -4.0000   -2.7321    0.0000 C   0  0  0  0  0  0  0  0  0  0  0  0
   -3.0000   -2.7321    0.0000 N   0  0  0  0  0  0  0  0  0  0  0  0
   -2.5000   -1.8660    0.0000 C   0  0  0  0  0  0  0  0  0  0  0  0
   -3.0000   -1.0000    0.0000 C   0  0  0  0  0  0  0  0  0  0  0  0
   -2.5000   -0.1340    0.0000 C   0  0  0  0  0  0  0  0  0  0  0  0
   -3.0000    0.7321    0.0000 C   0  0  0  0  0  0  0  0  0  0  0  0
   -2.5000    1.5981    0.0000 O   0  0  0  0  0  0  0  0  0  0  0  0
   -4.0000    0.7321    0.0000 O   0  0  0  0  0  0  0  0  0  0  0  0
   -1.5000   -0.1340    0.0000 C   0  0  0  0  0  0  0  0  0  0  0  0
   -1.0000   -1.0000    0.0000 C   0  0  0  0  0  0  0  0  0  0  0  0
    0.0000   -1.0000    0.0000 S   0  0  0  0  0  0  0  0  0  0  0  0
    0.0000   -2.0000    0.0000 N   0  0  0  0  0  0  0  0  0  0  0  0
    1.0000   -1.0000    0.0000 O   0  0  0  0  0  0  0  0  0  0  0  0
    0.0000   -0.0000    0.0000 O   0  0  0  0  0  0  0  0  0  0  0  0
   -1.5000   -1.8660    0.0000 C   0  0  0  0  0  0  0  0  0  0  0  0
   -1.0000   -2.7321    0.0000 O   0  0  0  0  0  0  0  0  0  0  0  0
    0.0000   -2.7321    0.0000 C   0  0  0  0  0  0  0  0  0  0  0  0
    0.5000   -1.8660    0.0000 C   0  0  0  0  0  0  0  0  0  0  0  0
    1.5000   -1.8660    0.0000 C   0  0  0  0  0  0  0  0  0  0  0  0
    2.0000   -2.7321    0.0000 C   0  0  0  0  0  0  0  0  0  0  0  0
    1.5000   -3.5981    0.0000 C   0  0  0  0  0  0  0  0  0  0  0  0
    0.5000   -3.5981    0.0000 C   0  0  0  0  0  0  0  0  0  0  0  0
  1  2  1  0  0  0  0
  2  3  1  0  0  0  0
  3  4  1  0  0  0  0
  4  5  1  0  0  0  0
  5  6  1  0  0  0  0
  6 18  1  0  0  0  0
  6  7  2  0  0  0  0
  7  8  1  0  0  0  0
  8  9  1  0  0  0  0
  8 12  2  0  0  0  0
  9 10  2  0  0  0  0
  9 11  1  0  0  0  0
 12 13  1  0  0  0  0
 13 14  1  0  0  0  0
 13 18  2  0  0  0  0
 14 15  1  0  0  0  0
 14 16  2  0  0  0  0
 14 17  2  0  0  0  0
 18 19  1  0  0  0  0
 19 20  1  0  0  0  0
 20 25  1  0  0  0  0
 20 21  2  0  0  0  0
 21 22  1  0  0  0  0
 22 23  2  0  0  0  0
 23 24  1  0  0  0  0
 24 25  2  0  0  0  0
M  END
$$$$

 OpenBabel10082008492D

 13 13  0  0  0  0  0  0  0  0999 V2000
    1.7321   -2.0000    0.0000 C   0  0  0  0  0  0  0  0  0  0  0  0
    2.5981   -1.5000    0.0000 N   0  0  0  0  0  0  0  0  0  0  0  0
    3.4641   -2.0000    0.0000 C   0  0  0  0  0  0  0  0  0  0  0  0
    2.5981   -0.5000    0.0000 C   0  0  0  0  0  0  0  0  0  0  0  0
    3.4641   -0.0000    0.0000 O   0  0  0  0  0  0  0  0  0  0  0  0
    1.7321   -0.0000    0.0000 O   0  0  0  0  0  0  0  0  0  0  0  0
    0.8660   -0.5000    0.0000 C   0  0  0  0  0  0  0  0  0  0  0  0
    0.8660   -1.5000    0.0000 C   0  0  0  0  0  0  0  0  0  0  0  0
    0.0000   -2.0000    0.0000 C   0  0  0  0  0  0  0  0  0  0  0  0
   -0.8660   -1.5000    0.0000 C   0  0  0  0  0  0  0  0  0  0  0  0
   -0.8660   -0.5000    0.0000 N   0  3  0  0  0  0  0  0  0  0  0  0
   -1.7321   -0.0000    0.0000 C   0  0  0  0  0  0  0  0  0  0  0  0
    0.0000    0.0000    0.0000 C   0  0  0  0  0  0  0  0  0  0  0  0
  1  2  1  0  0  0  0
  2  3  1  0  0  0  0
  2  4  1  0  0  0  0
  4  5  2  0  0  0  0
  4  6  1  0  0  0  0
  6  7  1  0  0  0  0
  7 13  1  0  0  0  0
  7  8  2  0  0  0  0
  8  9  1  0  0  0  0
  9 10  2  0  0  0  0
 10 11  1  0  0  0  0
 11 12  1  0  0  0  0
 11 13  2  0  0  0  0
M  CHG  1  11   1
M  END
$$$$

 OpenBabel10082008492D

 21 22  0  0  0  0  0  0  0  0999 V2000
    1.0000   -1.0000    0.0000 N   0  0  0  0  0  0  0  0  0  0  0  0
    1.0000   -0.0000    0.0000 S   0  0  0  0  0  0  0  0  0  0  0  0
    2.0000   -0.0000    0.0000 O   0  0  0  0  0  0  0  0  0  0  0  0
    1.0000    1.0000    0.0000 O   0  0  0  0  0  0  0  0  0  0  0  0
   -0.0000   -0.0000    0.0000 C   0  0  0  0  0  0  0  0  0  0  0  0
   -0.5000   -0.8660    0.0000 C   0  0  0  0  0  0  0  0  0  0  0  0
   -1.5000   -0.8660    0.0000 C   0  0  0  0  0  0  0  0  0  0  0  0
   -2.0000   -1.7321    0.0000 C   0  0  0  0  0  0  0  0  0  0  0  0
   -3.0000   -1.7321    0.0000 O   0  0  0  0  0  0  0  0  0  0  0  0
   -1.5000   -2.5981    0.0000 O   0  0  0  0  0  0  0  0  0  0  0  0
   -2.0000   -0.0000    0.0000 C   0  0  0  0  0  0  0  0  0  0  0  0
   -3.0000   -0.0000    0.0000 N   0  0  0  0  0  0  0  0  0  0  0  0
   -3.5000   -0.8660    0.0000 C   0  0  0  0  0  0  0  0  0  0  0  0
   -4.5000   -0.8660    0.0000 C   0  0  0  0  0  0  0  0  0  0  0  0
   -5.0878   -1.6750    0.0000 C   0  0  0  0  0  0  0  0  0  0  0  0
   -6.0388   -1.3660    0.0000 C   0  0  0  0  0  0  0  0  0  0  0  0
   -6.0388   -0.3660    0.0000 C   0  0  0  0  0  0  0  0  0  0  0  0
   -5.0878   -0.0570    0.0000 O   0  0  0  0  0  0  0  0  0  0  0  0
   -1.5000    0.8660    0.0000 C   0  0  0  0  0  0  0  0  0  0  0  0
   -0.5000    0.8660    0.0000 C   0  0  0  0  0  0  0  0  0  0  0  0
    0.0000    1.7321    0.0000 Cl  0  0  0  0  0  0  0  0  0  0  0  0
  1  2  1  0  0  0  0
  2  3  2  0  0  0  0
  2  4  2  0  0  0  0
  2  5  1  0  0  0  0
  5 20  1  0  0  0  0
  5  6  2  0  0  0  0
  6  7  1  0  0  0  0
  7  8  1  0  0  0  0
  7 11  2  0  0  0  0
  8  9  2  0  0  0  0
  8 10  1  0  0  0  0
 11 12  1  0  0  0  0
 11 19  1  0  0  0  0
 12 13  1  0  0  0  0
 13 14  1  0  0  0  0
 14 18  1  0  0  0  0
 14 15  2  0  0  0  0
 15 16  1  0  0  0  0
 16 17  2  0  0  0  0
 17 18  1  0  0  0  0
 19 20  2  0  0  0  0
 20 21  1  0  0  0  0
M  END
$$$$

 OpenBabel10082008492D

 28 31  0  0  1  0  0  0  0  0999 V2000
   -1.7321    0.0000    0.0000 C   0  0  0  0  0  0  0  0  0  0  0  0
   -0.8660    0.5000    0.0000 C   0  0  0  0  0  0  0  0  0  0  0  0
   -0.8660    1.5000    0.0000 C   0  0  0  0  0  0  0  0  0  0  0  0
    0.0000    2.0000    0.0000 C   0  0  0  0  0  0  0  0  0  0  0  0
    0.8660    1.5000    0.0000 C   0  0  0  0  0  0  0  0  0  0  0  0
    0.8660    0.5000    0.0000 C   0  0  0  0  0  0  0  0  0  0  0  0
    1.7321   -0.0000    0.0000 C   0  0  0  0  0  0  0  0  0  0  0  0
    2.5981    0.5000    0.0000 N   0  0  0  0  0  0  0  0  0  0  0  0
    2.5981    1.5000    0.0000 C   0  0  0  0  0  0  0  0  0  0  0  0
    3.4641    2.0000    0.0000 C   0  0  0  0  0  0  0  0  0  0  0  0
    4.3301    1.5000    0.0000 N   0  0  0  0  0  0  0  0  0  0  0  0
    5.1962    2.0000    0.0000 C   0  0  3  0  0  0  0  0  0  0  0  0
    6.0622    1.5000    0.0000 C   0  0  0  0  0  0  0  0  0  0  0  0
    6.9282    2.0000    0.0000 C   0  0  0  0  0  0  0  0  0  0  0  0
    7.7942    1.5000    0.0000 C   0  0  0  0  0  0  0  0  0  0  0  0
    7.7942    0.5000    0.0000 C   0  0  0  0  0  0  0  0  0  0  0  0
    6.9282   -0.0000    0.0000 C   0  0  0  0  0  0  0  0  0  0  0  0
    6.0622    0.5000    0.0000 C   0  0  0  0  0  0  0  0  0  0  0  0
    5.1962    3.0000    0.0000 C   0  0  0  0  0  0  0  0  0  0  0  0
    4.3301    3.5000    0.0000 C   0  0  0  0  0  0  0  0  0  0  0  0
    4.3301    4.5000    0.0000 C   0  0  0  0  0  0  0  0  0  0  0  0
    5.1962    5.0000    0.0000 C   0  0  0  0  0  0  0  0  0  0  0  0
    5.1962    6.0000    0.0000 Cl  0  0  0  0  0  0  0  0  0  0  0  0
    6.0622    4.5000    0.0000 C   0  0  0  0  0  0  0  0  0  0  0  0
    6.0622    3.5000    0.0000 C   0  0  0  0  0  0  0  0  0  0  0  0
    4.3301    0.5000    0.0000 C   0  0  0  0  0  0  0  0  0  0  0  0
    3.4641   -0.0000    0.0000 C   0  0  0  0  0  0  0  0  0  0  0  0
    0.0000    0.0000    0.0000 C   0  0  0  0  0  0  0  0  0  0  0  0
  1  2  1  0  0  0  0
  2 28  1  0  0  0  0
  2  3  2  0  0  0  0
  3  4  1  0  0  0  0
  4  5  2  0  0  0  0
  5  6  1  0  0  0  0
  6  7  1  0  0  0  0
  6 28  2  0  0  0  0
  7  8  1  0  0  0  0
  8 27  1  0  0  0  0
  8  9  1  0  0  0  0
  9 10  1  0  0  0  0
 10 11  1  0  0  0  0
 11 12  1  0  0  0  0
 11 26  1  0  0  0  0
 12 13  1  0  0  0  0
 12 19  1  0  0  0  0
 13 18  1  0  0  0  0
 13 14  2  0  0  0  0
 14 15  1  0  0  0  0
 15 16  2  0  0  0  0
 16 17  1  0  0  0  0
 17 18  2  0  0  0  0
 19 25  1  0  0  0  0
 19 20  2  0  0  0  0
 20 21  1  0  0  0  0
 21 22  2  0  0  0  0
 22 23  1  0  0  0  0
 22 24  1  0  0  0  0
 24 25  2  0  0  0  0
 26 27  1  0  0  0  0
M  END
$$$$

 OpenBabel10082008492D

 28 30  0  0  0  0  0  0  0  0999 V2000
    0.0000    1.0000    0.0000 C   0  0  0  0  0  0  0  0  0  0  0  0
    0.8660    1.5000    0.0000 C   0  0  0  0  0  0  0  0  0  0  0  0
    0.8660    2.5000    0.0000 C   0  0  0  0  0  0  0  0  0  0  0  0
    1.7321    3.0000    0.0000 C   0  0  0  0  0  0  0  0  0  0  0  0
    1.7321    4.0000    0.0000 C   0  0  0  0  0  0  0  0  0  0  0  0
    0.8660    4.5000    0.0000 C   0  0  0  0  0  0  0  0  0  0  0  0
    0.8660    5.5000    0.0000 C   0  0  0  0  0  0  0  0  0  0  0  0
    0.8660    6.5000    0.0000 N   0  0  0  0  0  0  0  0  0  0  0  0
    2.5981    2.5000    0.0000 C   0  0  0  0  0  0  0  0  0  0  0  0
    2.5981    1.5000    0.0000 C   0  0  0  0  0  0  0  0  0  0  0  0
    3.4641    1.0000    0.0000 C   0  0  0  0  0  0  0  0  0  0  0  0
    1.7321    1.0000    0.0000 C   0  0  0  0  0  0  0  0  0  0  0  0
    1.7321   -0.0000    0.0000 N   0  0  0  0  0  0  0  0  0  0  0  0
    0.8660   -0.5000    0.0000 C   0  0  0  0  0  0  0  0  0  0  0  0
    0.8660   -1.5000    0.0000 C   0  0  0  0  0  0  0  0  0  0  0  0
    0.0000   -2.0000    0.0000 C   0  0  0  0  0  0  0  0  0  0  0  0
   -0.8660   -1.5000    0.0000 N   0  0  0  0  0  0  0  0  0  0  0  0
   -0.8660   -0.5000    0.0000 C   0  0  0  0  0  0  0  0  0  0  0  0
   -1.7321    0.0000    0.0000 N   0  0  0  0  0  0  0  0  0  0  0  0
   -1.7321    1.0000    0.0000 C   0  0  0  0  0  0  0  0  0  0  0  0
   -2.5981    1.5000    0.0000 C   0  0  0  0  0  0  0  0  0  0  0  0
   -2.5981    2.5000    0.0000 C   0  0  0  0  0  0  0  0  0  0  0  0
   -1.7321    3.0000    0.0000 C   0  0  0  0  0  0  0  0  0  0  0  0
   -1.7321    4.0000    0.0000 C   0  0  0  0  0  0  0  0  0  0  0  0
   -1.7321    5.0000    0.0000 N   0  0  0  0  0  0  0  0  0  0  0  0
   -0.8660    2.5000    0.0000 C   0  0  0  0  0  0  0  0  0  0  0  0
   -0.8660    1.5000    0.0000 C   0  0  0  0  0  0  0  0  0  0  0  0
    0.0000    0.0000    0.0000 N   0  0  0  0  0  0  0  0  0  0  0  0
  1  2  1  0  0  0  0
  2 12  1  0  0  0  0
  2  3  2  0  0  0  0
  3  4  1  0  0  0  0
  4  5  1  0  0  0  0
  4  9  2  0  0  0  0
  5  6  2  0  0  0  0
  6  7  1  0  0  0  0
  7  8  3  0  0  0  0
  9 10  1  0  0  0  0
 10 11  1  0  0  0  0
 10 12  2  0  0  0  0
 12 13  1  0  0  0  0
 13 14  1  0  0  0  0
 14 28  1  0  0  0  0
 14 15  2  0  0  0  0
 15 16  1  0  0  0  0
 16 17  2  0  0  0  0
 17 18  1  0  0  0  0
 18 19  1  0  0  0  0
 18 28  2  0  0  0  0
 19 20  1  0  0  0  0
 20 27  1  0  0  0  0
 20 21  2  0  0  0  0
 21 22  1  0  0  0  0
 22 23  2  0  0  0  0
 23 24  1  0  0  0  0
 23 26  1  0  0  0  0
 24 25  3  0  0  0  0
 26 27  2  0  0  0  0
M  END
$$$$

 OpenBabel10082008492D

 15 15  0  0  0  0  0  0  0  0999 V2000
    1.7321   -3.0000    0.0000 O   0  0  0  0  0  0  0  0  0  0  0  0
    2.5981   -2.5000    0.0000 N   0  0  0  0  0  0  0  0  0  0  0  0
    2.5981   -1.5000    0.0000 N   0  0  0  0  0  0  0  0  0  0  0  0
    3.4641   -1.0000    0.0000 C   0  0  0  0  0  0  0  0  0  0  0  0
    3.4641   -0.0000    0.0000 C   0  0  0  0  0  0  0  0  0  0  0  0
    2.5981    0.5000    0.0000 Cl  0  0  0  0  0  0  0  0  0  0  0  0
    1.7321   -1.0000    0.0000 C   0  0  0  0  0  0  0  0  0  0  0  0
    1.7321   -0.0000    0.0000 O   0  0  0  0  0  0  0  0  0  0  0  0
    0.8660   -1.5000    0.0000 N   0  0  0  0  0  0  0  0  0  0  0  0
   -0.0000   -1.0000    0.0000 C   0  0  0  0  0  0  0  0  0  0  0  0
   -0.8660   -1.5000    0.0000 C   0  0  0  0  0  0  0  0  0  0  0  0
   -1.7321   -1.0000    0.0000 C   0  0  0  0  0  0  0  0  0  0  0  0
   -1.7321    0.0000    0.0000 C   0  0  0  0  0  0  0  0  0  0  0  0
   -0.8660    0.5000    0.0000 C   0  0  0  0  0  0  0  0  0  0  0  0
    0.0000    0.0000    0.0000 C   0  0  0  0  0  0  0  0  0  0  0  0
  1  2  2  0  0  0  0
  2  3  1  0  0  0  0
  3  4  1  0  0  0  0
  3  7  1  0  0  0  0
  4  5  1  0  0  0  0
  5  6  1  0  0  0  0
  7  8  2  0  0  0  0
  7  9  1  0  0  0  0
  9 10  1  0  0  0  0
 10 15  1  0  0  0  0
 10 11  1  0  0  0  0
 11 12  1  0  0  0  0
 12 13  1  0  0  0  0
 13 14  1  0  0  0  0
 14 15  1  0  0  0  0
M  END
$$$$

 OpenBabel10082008492D

 21 21  0  0  1  0  0  0  0  0999 V2000
   -3.4641   -1.0000    0.0000 C   0  0  0  0  0  0  0  0  0  0  0  0
   -2.5981   -0.5000    0.0000 C   0  0  1  0  0  0  0  0  0  0  0  0
   -2.0981   -1.3660    0.0000 H   0  0  0  0  0  0  0  0  0  0  0  0
   -1.7321   -0.0000    0.0000 C   0  0  0  0  0  0  0  0  0  0  0  0
   -0.8660   -0.5000    0.0000 C   0  0  0  0  0  0  0  0  0  0  0  0
   -0.8660   -1.5000    0.0000 C   0  0  0  0  0  0  0  0  0  0  0  0
    0.0000   -2.0000    0.0000 C   0  0  0  0  0  0  0  0  0  0  0  0
    0.8660   -1.5000    0.0000 C   0  0  0  0  0  0  0  0  0  0  0  0
    0.8660   -0.5000    0.0000 C   0  0  0  0  0  0  0  0  0  0  0  0
    0.0000    0.0000    0.0000 C   0  0  0  0  0  0  0  0  0  0  0  0
   -3.0981    0.3660    0.0000 N   0  0  0  0  0  0  0  0  0  0  0  0
   -2.5981    1.2321    0.0000 C   0  0  0  0  0  0  0  0  0  0  0  0
   -1.5981    1.2321    0.0000 O   0  0  0  0  0  0  0  0  0  0  0  0
   -3.0981    2.0981    0.0000 C   0  0  1  0  0  0  0  0  0  0  0  0
   -3.9641    2.5981    0.0000 H   0  0  0  0  0  0  0  0  0  0  0  0
   -3.9641    1.5981    0.0000 N   0  0  0  0  0  0  0  0  0  0  0  0
   -2.5981    2.9641    0.0000 C   0  0  0  0  0  0  0  0  0  0  0  0
   -3.0981    3.8301    0.0000 C   0  0  0  0  0  0  0  0  0  0  0  0
   -2.5981    4.6962    0.0000 C   0  0  0  0  0  0  0  0  0  0  0  0
   -3.0981    5.5622    0.0000 C   0  0  0  0  0  0  0  0  0  0  0  0
   -2.5981    6.4282    0.0000 N   0  0  0  0  0  0  0  0  0  0  0  0
  1  2  1  0  0  0  0
  2  3  1  1  0  0  0
  2  4  1  0  0  0  0
  2 11  1  0  0  0  0
  4  5  1  0  0  0  0
  5 10  1  0  0  0  0
  5  6  2  0  0  0  0
  6  7  1  0  0  0  0
  7  8  2  0  0  0  0
  8  9  1  0  0  0  0
  9 10  2  0  0  0  0
 11 12  1  0  0  0  0
 12 13  2  0  0  0  0
 12 14  1  0  0  0  0
 14 15  1  6  0  0  0
 14 16  1  0  0  0  0
 14 17  1  0  0  0  0
 17 18  1  0  0  0  0
 18 19  1  0  0  0  0
 19 20  1  0  0  0  0
 20 21  1  0  0  0  0
M  END
$$$$

 OpenBabel10082008492D

 28 30  0  0  0  0  0  0  0  0999 V2000
   -0.8660    2.5000    0.0000 C   0  0  0  0  0  0  0  0  0  0  0  0
    0.0000    3.0000    0.0000 C   0  0  0  0  0  0  0  0  0  0  0  0
    0.0000    4.0000    0.0000 C   0  0  0  0  0  0  0  0  0  0  0  0
    0.8660    4.5000    0.0000 C   0  0  0  0  0  0  0  0  0  0  0  0
    0.8660    5.5000    0.0000 C   0  0  0  0  0  0  0  0  0  0  0  0
    0.8660    6.5000    0.0000 N   0  0  0  0  0  0  0  0  0  0  0  0
    1.7321    4.0000    0.0000 C   0  0  0  0  0  0  0  0  0  0  0  0
    1.7321    3.0000    0.0000 C   0  0  0  0  0  0  0  0  0  0  0  0
    2.5981    2.5000    0.0000 C   0  0  0  0  0  0  0  0  0  0  0  0
    0.8660    2.5000    0.0000 C   0  0  0  0  0  0  0  0  0  0  0  0
    0.8660    1.5000    0.0000 O   0  0  0  0  0  0  0  0  0  0  0  0
    0.0000    1.0000    0.0000 C   0  0  0  0  0  0  0  0  0  0  0  0
   -0.8660    1.5000    0.0000 N   0  0  0  0  0  0  0  0  0  0  0  0
   -1.7321    1.0000    0.0000 C   0  0  0  0  0  0  0  0  0  0  0  0
   -2.5981    1.5000    0.0000 N   0  0  0  0  0  0  0  0  0  0  0  0
   -3.4641    1.0000    0.0000 C   0  0  0  0  0  0  0  0  0  0  0  0
   -4.3301    1.5000    0.0000 C   0  0  0  0  0  0  0  0  0  0  0  0
   -5.1962    1.0000    0.0000 C   0  0  0  0  0  0  0  0  0  0  0  0
   -5.1962    0.0000    0.0000 C   0  0  0  0  0  0  0  0  0  0  0  0
   -6.0622   -0.5000    0.0000 C   0  0  0  0  0  0  0  0  0  0  0  0
   -6.9282   -1.0000    0.0000 N   0  0  0  0  0  0  0  0  0  0  0  0
   -4.3301   -0.5000    0.0000 C   0  0  0  0  0  0  0  0  0  0  0  0
   -3.4641    0.0000    0.0000 C   0  0  0  0  0  0  0  0  0  0  0  0
   -1.7321    0.0000    0.0000 N   0  0  0  0  0  0  0  0  0  0  0  0
   -0.8660   -0.5000    0.0000 C   0  0  0  0  0  0  0  0  0  0  0  0
   -0.8660   -1.5000    0.0000 N   0  0  0  0  0  0  0  0  0  0  0  0
    0.0000    0.0000    0.0000 C   0  0  0  0  0  0  0  0  0  0  0  0
    0.8660   -0.5000    0.0000 Br  0  0  0  0  0  0  0  0  0  0  0  0
  1  2  1  0  0  0  0
  2 10  1  0  0  0  0
  2  3  2  0  0  0  0
  3  4  1  0  0  0  0
  4  5  1  0  0  0  0
  4  7  2  0  0  0  0
  5  6  3  0  0  0  0
  7  8  1  0  0  0  0
  8  9  1  0  0  0  0
  8 10  2  0  0  0  0
 10 11  1  0  0  0  0
 11 12  1  0  0  0  0
 12 27  1  0  0  0  0
 12 13  2  0  0  0  0
 13 14  1  0  0  0  0
 14 15  1  0  0  0  0
 14 24  2  0  0  0  0
 15 16  1  0  0  0  0
 16 23  1  0  0  0  0
 16 17  2  0  0  0  0
 17 18  1  0  0  0  0
 18 19  2  0  0  0  0
 19 20  1  0  0  0  0
 19 22  1  0  0  0  0
 20 21  3  0  0  0  0
 22 23  2  0  0  0  0
 24 25  1  0  0  0  0
 25 26  1  0  0  0  0
 25 27  2  0  0  0  0
 27 28  1  0  0  0  0
M  END
$$$$

 OpenBabel10082008492D

 62 69  0  0  0  0  0  0  0  0999 V2000
  -10.0000    1.7321    0.0000 C   0  0  0  0  0  0  0  0  0  0  0  0
  -10.0000    0.7321    0.0000 C   0  0  0  0  0  0  0  0  0  0  0  0
  -10.8660    1.2321    0.0000 C   0  0  0  0  0  0  0  0  0  0  0  0
   -9.0000    0.7321    0.0000 C   0  0  0  0  0  0  0  0  0  0  0  0
   -8.5000   -0.1340    0.0000 C   0  0  0  0  0  0  0  0  0  0  0  0
   -9.0000   -1.0000    0.0000 C   0  0  0  0  0  0  0  0  0  0  0  0
   -8.5000   -1.8660    0.0000 C   0  0  0  0  0  0  0  0  0  0  0  0
   -7.5000   -1.8660    0.0000 N   0  0  0  0  0  0  0  0  0  0  0  0
   -7.0000   -1.0000    0.0000 C   0  0  0  0  0  0  0  0  0  0  0  0
   -6.0000   -1.0000    0.0000 C   0  0  0  0  0  0  0  0  0  0  0  0
   -5.5000   -1.8660    0.0000 N   0  0  0  0  0  0  0  0  0  0  0  0
   -4.5000   -1.8660    0.0000 C   0  0  0  0  0  0  0  0  0  0  0  0
   -4.0000   -1.0000    0.0000 C   0  0  0  0  0  0  0  0  0  0  0  0
   -3.0000   -1.0000    0.0000 C   0  0  0  0  0  0  0  0  0  0  0  0
   -2.5000   -1.8660    0.0000 C   0  0  0  0  0  0  0  0  0  0  0  0
   -1.5000   -1.8660    0.0000 C   0  0  0  0  0  0  0  0  0  0  0  0
   -1.0000   -2.7321    0.0000 O   0  0  0  0  0  0  0  0  0  0  0  0
   -1.0000   -1.0000    0.0000 N   0  0  0  0  0  0  0  0  0  0  0  0
    0.0000   -1.0000    0.0000 S   0  0  0  0  0  0  0  0  0  0  0  0
   -0.0000   -2.0000    0.0000 O   0  0  0  0  0  0  0  0  0  0  0  0
    1.0000   -1.0000    0.0000 O   0  0  0  0  0  0  0  0  0  0  0  0
   -0.0000   -0.0000    0.0000 C   0  0  0  0  0  0  0  0  0  0  0  0
   -0.8660    0.5000    0.0000 C   0  0  0  0  0  0  0  0  0  0  0  0
   -0.8660    1.5000    0.0000 C   0  0  0  0  0  0  0  0  0  0  0  0
    0.0000    2.0000    0.0000 C   0  0  0  0  0  0  0  0  0  0  0  0
    0.0000    3.0000    0.0000 N   0  0  0  0  0  0  0  0  0  0  0  0
   -0.8660    3.5000    0.0000 C   0  0  0  0  0  0  0  0  0  0  0  0
   -1.7321    3.0000    0.0000 C   0  0  0  0  0  0  0  0  0  0  0  0
   -2.5981    3.5000    0.0000 C   0  0  0  0  0  0  0  0  0  0  0  0
   -3.4641    3.0000    0.0000 C   0  0  0  0  0  0  0  0  0  0  0  0
   -3.4641    2.0000    0.0000 O   0  0  0  0  0  0  0  0  0  0  0  0
   -2.5981    1.5000    0.0000 C   0  0  0  0  0  0  0  0  0  0  0  0
   -1.7321    2.0000    0.0000 C   0  0  0  0  0  0  0  0  0  0  0  0
    0.8660    1.5000    0.0000 C   0  0  0  0  0  0  0  0  0  0  0  0
    1.7321    2.0000    0.0000 N   0  3  0  0  0  0  0  0  0  0  0  0
    2.5981    1.5000    0.0000 O   0  0  0  0  0  0  0  0  0  0  0  0
    1.7321    3.0000    0.0000 O   0  5  0  0  0  0  0  0  0  0  0  0
    0.8660    0.5000    0.0000 C   0  0  0  0  0  0  0  0  0  0  0  0
   -3.0000   -2.7321    0.0000 C   0  0  0  0  0  0  0  0  0  0  0  0
   -2.5000   -3.5981    0.0000 O   0  0  0  0  0  0  0  0  0  0  0  0
   -3.0000   -4.4641    0.0000 C   0  0  0  0  0  0  0  0  0  0  0  0
   -2.5000   -5.3301    0.0000 C   0  0  0  0  0  0  0  0  0  0  0  0
   -3.0000   -6.1962    0.0000 N   0  0  0  0  0  0  0  0  0  0  0  0
   -4.0000   -6.1962    0.0000 C   0  0  0  0  0  0  0  0  0  0  0  0
   -4.6691   -6.9393    0.0000 N   0  0  0  0  0  0  0  0  0  0  0  0
   -4.4612   -7.9174    0.0000 H   0  0  0  0  0  0  0  0  0  0  0  0
   -5.5827   -6.5326    0.0000 C   0  0  0  0  0  0  0  0  0  0  0  0
   -5.4781   -5.5380    0.0000 C   0  0  0  0  0  0  0  0  0  0  0  0
   -4.5000   -5.3301    0.0000 C   0  0  0  0  0  0  0  0  0  0  0  0
   -4.0000   -4.4641    0.0000 C   0  0  0  0  0  0  0  0  0  0  0  0
   -4.0000   -2.7321    0.0000 C   0  0  0  0  0  0  0  0  0  0  0  0
   -6.0000   -2.7321    0.0000 C   0  0  0  0  0  0  0  0  0  0  0  0
   -7.0000   -2.7321    0.0000 C   0  0  0  0  0  0  0  0  0  0  0  0
  -10.0000   -1.0000    0.0000 C   0  0  0  0  0  0  0  0  0  0  0  0
  -10.5000   -1.8660    0.0000 C   0  0  0  0  0  0  0  0  0  0  0  0
  -10.0000   -2.7321    0.0000 C   0  0  0  0  0  0  0  0  0  0  0  0
  -10.5000   -3.5981    0.0000 C   0  0  0  0  0  0  0  0  0  0  0  0
  -11.5000   -3.5981    0.0000 C   0  0  0  0  0  0  0  0  0  0  0  0
  -12.0000   -4.4641    0.0000 Cl  0  0  0  0  0  0  0  0  0  0  0  0
  -12.0000   -2.7321    0.0000 C   0  0  0  0  0  0  0  0  0  0  0  0
  -11.5000   -1.8660    0.0000 C   0  0  0  0  0  0  0  0  0  0  0  0
  -10.5000   -0.1340    0.0000 C   0  0  0  0  0  0  0  0  0  0  0  0
  1  2  1  0  0  0  0
  2 62  1  0  0  0  0
  2  3  1  0  0  0  0
  2  4  1  0  0  0  0
  4  5  1  0  0  0  0
  5  6  1  0  0  0  0
  6  7  1  0  0  0  0
  6 54  2  0  0  0  0
  7  8  1  0  0  0  0
  8 53  1  0  0  0  0
  8  9  1  0  0  0  0
  9 10  1  0  0  0  0
 10 11  1  0  0  0  0
 11 12  1  0  0  0  0
 11 52  1  0  0  0  0
 12 51  1  0  0  0  0
 12 13  2  0  0  0  0
 13 14  1  0  0  0  0
 14 15  2  0  0  0  0
 15 16  1  0  0  0  0
 15 39  1  0  0  0  0
 16 17  2  0  0  0  0
 16 18  1  0  0  0  0
 18 19  1  0  0  0  0
 19 20  2  0  0  0  0
 19 21  2  0  0  0  0
 19 22  1  0  0  0  0
 22 38  1  0  0  0  0
 22 23  2  0  0  0  0
 23 24  1  0  0  0  0
 24 25  2  0  0  0  0
 25 26  1  0  0  0  0
 25 34  1  0  0  0  0
 26 27  1  0  0  0  0
 27 28  1  0  0  0  0
 28 33  1  0  0  0  0
 28 29  1  0  0  0  0
 29 30  1  0  0  0  0
 30 31  1  0  0  0  0
 31 32  1  0  0  0  0
 32 33  1  0  0  0  0
 34 35  1  0  0  0  0
 34 38  2  0  0  0  0
 35 36  2  0  0  0  0
 35 37  1  0  0  0  0
 39 40  1  0  0  0  0
 39 51  2  0  0  0  0
 40 41  1  0  0  0  0
 41 50  1  0  0  0  0
 41 42  2  0  0  0  0
 42 43  1  0  0  0  0
 43 44  2  0  0  0  0
 44 49  1  0  0  0  0
 44 45  1  0  0  0  0
 45 46  1  0  0  0  0
 45 47  1  0  0  0  0
 47 48  2  0  0  0  0
 48 49  1  0  0  0  0
 49 50  2  0  0  0  0
 52 53  1  0  0  0  0
 54 55  1  0  0  0  0
 54 62  1  0  0  0  0
 55 61  1  0  0  0  0
 55 56  2  0  0  0  0
 56 57  1  0  0  0  0
 57 58  2  0  0  0  0
 58 59  1  0  0  0  0
 58 60  1  0  0  0  0
 60 61  2  0  0  0  0
M  CHG  2  35   1  37  -1
M  END
$$$$

 OpenBabel10082008492D

 21 23  0  0  0  0  0  0  0  0999 V2000
   -4.5747   -0.4266    0.0000 C   0  0  0  0  0  0  0  0  0  0  0  0
   -3.8416   -1.1068    0.0000 N   0  0  0  0  0  0  0  0  0  0  0  0
   -4.0642   -2.0817    0.0000 C   0  0  0  0  0  0  0  0  0  0  0  0
   -2.8861   -0.8120    0.0000 C   0  0  0  0  0  0  0  0  0  0  0  0
   -2.1530   -1.4922    0.0000 C   0  0  0  0  0  0  0  0  0  0  0  0
   -1.1974   -1.1974    0.0000 C   0  0  0  0  0  0  0  0  0  0  0  0
   -0.9749   -0.2225    0.0000 N   0  0  0  0  0  0  0  0  0  0  0  0
   -1.7568    0.4010    0.0000 C   0  0  0  0  0  0  0  0  0  0  0  0
   -2.6228   -0.0990    0.0000 C   0  0  0  0  0  0  0  0  0  0  0  0
   -3.4888    0.4010    0.0000 C   0  0  0  0  0  0  0  0  0  0  0  0
   -3.4888    1.4010    0.0000 C   0  0  0  0  0  0  0  0  0  0  0  0
   -2.6228    1.9010    0.0000 C   0  0  0  0  0  0  0  0  0  0  0  0
   -1.7568    1.4010    0.0000 C   0  0  0  0  0  0  0  0  0  0  0  0
   -0.9749    2.0245    0.0000 C   0  0  0  0  0  0  0  0  0  0  0  0
   -0.0000    1.8019    0.0000 C   0  0  0  0  0  0  0  0  0  0  0  0
    0.4339    0.9010    0.0000 C   0  0  0  0  0  0  0  0  0  0  0  0
    1.4311    0.9757    0.0000 C   0  0  0  0  0  0  0  0  0  0  0  0
    1.9944    0.1495    0.0000 C   0  0  0  0  0  0  0  0  0  0  0  0
    1.5605   -0.7515    0.0000 C   0  0  0  0  0  0  0  0  0  0  0  0
    0.5633   -0.8262    0.0000 C   0  0  0  0  0  0  0  0  0  0  0  0
    0.0000    0.0000    0.0000 C   0  0  0  0  0  0  0  0  0  0  0  0
  1  2  1  0  0  0  0
  2  3  1  0  0  0  0
  2  4  1  0  0  0  0
  4  5  1  0  0  0  0
  5  6  1  0  0  0  0
  6  7  1  0  0  0  0
  7 21  1  0  0  0  0
  7  8  1  0  0  0  0
  8 13  1  0  0  0  0
  8  9  2  0  0  0  0
  9 10  1  0  0  0  0
 10 11  2  0  0  0  0
 11 12  1  0  0  0  0
 12 13  2  0  0  0  0
 13 14  1  0  0  0  0
 14 15  1  0  0  0  0
 15 16  1  0  0  0  0
 16 21  1  0  0  0  0
 16 17  2  0  0  0  0
 17 18  1  0  0  0  0
 18 19  2  0  0  0  0
 19 20  1  0  0  0  0
 20 21  2  0  0  0  0
M  END
$$$$

 OpenBabel10082008492D

 22 24  0  0  0  0  0  0  0  0999 V2000
    1.0000   -1.0000    0.0000 C   0  0  0  0  0  0  0  0  0  0  0  0
    1.0000   -0.0000    0.0000 S   0  0  0  0  0  0  0  0  0  0  0  0
    2.0000   -0.0000    0.0000 O   0  0  0  0  0  0  0  0  0  0  0  0
    1.0000    1.0000    0.0000 O   0  0  0  0  0  0  0  0  0  0  0  0
   -0.0000   -0.0000    0.0000 C   0  0  0  0  0  0  0  0  0  0  0  0
   -0.5000   -0.8660    0.0000 C   0  0  0  0  0  0  0  0  0  0  0  0
   -1.5000   -0.8660    0.0000 C   0  0  0  0  0  0  0  0  0  0  0  0
   -2.0000    0.0000    0.0000 C   0  0  0  0  0  0  0  0  0  0  0  0
   -3.0000    0.0000    0.0000 C   0  0  0  0  0  0  0  0  0  0  0  0
   -3.5878   -0.8090    0.0000 C   0  0  0  0  0  0  0  0  0  0  0  0
   -3.2788   -1.7601    0.0000 C   0  0  0  0  0  0  0  0  0  0  0  0
   -2.3006   -1.9680    0.0000 C   0  0  0  0  0  0  0  0  0  0  0  0
   -1.9916   -2.9190    0.0000 C   0  0  0  0  0  0  0  0  0  0  0  0
   -2.6607   -3.6622    0.0000 C   0  0  0  0  0  0  0  0  0  0  0  0
   -3.6389   -3.4543    0.0000 C   0  0  0  0  0  0  0  0  0  0  0  0
   -3.9479   -2.5032    0.0000 C   0  0  0  0  0  0  0  0  0  0  0  0
   -4.5388   -0.5000    0.0000 C   0  0  0  0  0  0  0  0  0  0  0  0
   -5.3479   -1.0878    0.0000 O   0  0  0  0  0  0  0  0  0  0  0  0
   -4.5388    0.5000    0.0000 O   0  0  0  0  0  0  0  0  0  0  0  0
   -3.5878    0.8090    0.0000 C   0  0  0  0  0  0  0  0  0  0  0  0
   -1.5000    0.8660    0.0000 C   0  0  0  0  0  0  0  0  0  0  0  0
   -0.5000    0.8660    0.0000 C   0  0  0  0  0  0  0  0  0  0  0  0
  1  2  1  0  0  0  0
  2  3  2  0  0  0  0
  2  4  2  0  0  0  0
  2  5  1  0  0  0  0
  5 22  1  0  0  0  0
  5  6  2  0  0  0  0
  6  7  1  0  0  0  0
  7  8  2  0  0  0  0
  8  9  1  0  0  0  0
  8 21  1  0  0  0  0
  9 20  1  0  0  0  0
  9 10  2  0  0  0  0
 10 11  1  0  0  0  0
 10 17  1  0  0  0  0
 11 16  1  0  0  0  0
 11 12  2  0  0  0  0
 12 13  1  0  0  0  0
 13 14  2  0  0  0  0
 14 15  1  0  0  0  0
 15 16  2  0  0  0  0
 17 18  2  0  0  0  0
 17 19  1  0  0  0  0
 19 20  1  0  0  0  0
 21 22  2  0  0  0  0
M  END
$$$$

 OpenBabel10082008492D

 33 36  0  0  0  0  0  0  0  0999 V2000
    2.9341   -5.3469    0.0000 C   0  0  0  0  0  0  0  0  0  0  0  0
    3.7728   -4.8023    0.0000 N   0  0  0  0  0  0  0  0  0  0  0  0
    3.7205   -3.8037    0.0000 C   0  0  0  0  0  0  0  0  0  0  0  0
    4.5591   -3.2590    0.0000 O   0  0  0  0  0  0  0  0  0  0  0  0
    2.8295   -3.3497    0.0000 C   0  0  0  0  0  0  0  0  0  0  0  0
    1.9908   -3.8943    0.0000 C   0  0  0  0  0  0  0  0  0  0  0  0
    1.0998   -3.4403    0.0000 C   0  0  0  0  0  0  0  0  0  0  0  0
    1.0474   -2.4417    0.0000 C   0  0  0  0  0  0  0  0  0  0  0  0
    0.1564   -1.9877    0.0000 N   0  0  0  0  0  0  0  0  0  0  0  0
   -0.7346   -2.4417    0.0000 C   0  0  0  0  0  0  0  0  0  0  0  0
   -0.8910   -3.4294    0.0000 S   0  0  0  0  0  0  0  0  0  0  0  0
   -1.4417   -1.7346    0.0000 N   0  0  0  0  0  0  0  0  0  0  0  0
   -2.4294   -1.8910    0.0000 C   0  0  0  0  0  0  0  0  0  0  0  0
   -2.7877   -2.8246    0.0000 C   0  0  0  0  0  0  0  0  0  0  0  0
   -3.7754   -2.9810    0.0000 N   0  0  0  0  0  0  0  0  0  0  0  0
   -4.4047   -2.2039    0.0000 C   0  0  0  0  0  0  0  0  0  0  0  0
   -5.3924   -2.3603    0.0000 C   0  0  0  0  0  0  0  0  0  0  0  0
   -6.3801   -2.5167    0.0000 N   0  0  0  0  0  0  0  0  0  0  0  0
   -4.0464   -1.2703    0.0000 C   0  0  0  0  0  0  0  0  0  0  0  0
   -4.6757   -0.4931    0.0000 C   0  0  0  0  0  0  0  0  0  0  0  0
   -5.6093   -0.1348    0.0000 F   0  0  0  0  0  0  0  0  0  0  0  0
   -5.4528   -1.1225    0.0000 F   0  0  0  0  0  0  0  0  0  0  0  0
   -4.3173    0.4404    0.0000 F   0  0  0  0  0  0  0  0  0  0  0  0
   -3.0587   -1.1139    0.0000 C   0  0  0  0  0  0  0  0  0  0  0  0
   -0.9877   -0.8436    0.0000 C   0  0  0  0  0  0  0  0  0  0  0  0
   -1.4417    0.0474    0.0000 O   0  0  0  0  0  0  0  0  0  0  0  0
    0.0000   -1.0000    0.0000 C   0  0  0  0  0  0  0  0  0  0  0  0
    0.0000   -0.0000    0.0000 C   0  0  0  0  0  0  0  0  0  0  0  0
    1.0000   -0.0000    0.0000 C   0  0  0  0  0  0  0  0  0  0  0  0
    1.0000   -1.0000    0.0000 C   0  0  0  0  0  0  0  0  0  0  0  0
    1.8861   -1.8970    0.0000 C   0  0  0  0  0  0  0  0  0  0  0  0
    2.7771   -2.3510    0.0000 C   0  0  0  0  0  0  0  0  0  0  0  0
    3.6158   -1.8064    0.0000 F   0  0  0  0  0  0  0  0  0  0  0  0
  1  2  1  0  0  0  0
  2  3  1  0  0  0  0
  3  4  2  0  0  0  0
  3  5  1  0  0  0  0
  5 32  1  0  0  0  0
  5  6  2  0  0  0  0
  6  7  1  0  0  0  0
  7  8  2  0  0  0  0
  8  9  1  0  0  0  0
  8 31  1  0  0  0  0
  9 27  1  0  0  0  0
  9 10  1  0  0  0  0
 10 11  2  0  0  0  0
 10 12  1  0  0  0  0
 12 13  1  0  0  0  0
 12 25  1  0  0  0  0
 13 24  1  0  0  0  0
 13 14  2  0  0  0  0
 14 15  1  0  0  0  0
 15 16  2  0  0  0  0
 16 17  1  0  0  0  0
 16 19  1  0  0  0  0
 17 18  3  0  0  0  0
 19 20  1  0  0  0  0
 19 24  2  0  0  0  0
 20 21  1  0  0  0  0
 20 22  1  0  0  0  0
 20 23  1  0  0  0  0
 25 26  2  0  0  0  0
 25 27  1  0  0  0  0
 27 30  1  0  0  0  0
 27 28  1  0  0  0  0
 28 29  1  0  0  0  0
 29 30  1  0  0  0  0
 31 32  2  0  0  0  0
 32 33  1  0  0  0  0
M  END
$$$$

 OpenBabel10082008492D

 17 17  0  0  0  0  0  0  0  0999 V2000
   -0.8660   -4.5000    0.0000 C   0  0  0  0  0  0  0  0  0  0  0  0
   -0.0000   -5.0000    0.0000 C   0  0  0  0  0  0  0  0  0  0  0  0
   -0.0000   -6.0000    0.0000 C   0  0  0  0  0  0  0  0  0  0  0  0
    0.8660   -4.5000    0.0000 N   0  0  0  0  0  0  0  0  0  0  0  0
    0.8660   -3.5000    0.0000 C   0  0  0  0  0  0  0  0  0  0  0  0
    1.7321   -3.0000    0.0000 N   0  0  0  0  0  0  0  0  0  0  0  0
   -0.0000   -3.0000    0.0000 N   0  0  0  0  0  0  0  0  0  0  0  0
   -0.0000   -2.0000    0.0000 C   0  0  0  0  0  0  0  0  0  0  0  0
    0.8660   -1.5000    0.0000 N   0  0  0  0  0  0  0  0  0  0  0  0
   -0.8660   -1.5000    0.0000 N   0  0  0  0  0  0  0  0  0  0  0  0
   -0.8660   -0.5000    0.0000 C   0  0  0  0  0  0  0  0  0  0  0  0
   -1.7321   -0.0000    0.0000 C   0  0  0  0  0  0  0  0  0  0  0  0
   -1.7321    1.0000    0.0000 C   0  0  0  0  0  0  0  0  0  0  0  0
   -0.8660    1.5000    0.0000 C   0  0  0  0  0  0  0  0  0  0  0  0
   -0.8660    2.5000    0.0000 Cl  0  0  0  0  0  0  0  0  0  0  0  0
   -0.0000    1.0000    0.0000 C   0  0  0  0  0  0  0  0  0  0  0  0
    0.0000   -0.0000    0.0000 C   0  0  0  0  0  0  0  0  0  0  0  0
  1  2  1  0  0  0  0
  2  3  1  0  0  0  0
  2  4  1  0  0  0  0
  4  5  1  0  0  0  0
  5  6  2  0  0  0  0
  5  7  1  0  0  0  0
  7  8  1  0  0  0  0
  8  9  2  0  0  0  0
  8 10  1  0  0  0  0
 10 11  1  0  0  0  0
 11 17  1  0  0  0  0
 11 12  2  0  0  0  0
 12 13  1  0  0  0  0
 13 14  2  0  0  0  0
 14 15  1  0  0  0  0
 14 16  1  0  0  0  0
 16 17  2  0  0  0  0
M  END
$$$$

 OpenBabel10082008492D

 22 25  0  0  1  0  0  0  0  0999 V2000
    4.7822    0.8330    0.0000 C   0  0  0  0  0  0  0  0  0  0  0  0
    3.9481    1.3149    0.0000 O   0  0  0  0  0  0  0  0  0  0  0  0
    3.1138    0.8334    0.0000 C   0  0  0  0  0  0  0  0  0  0  0  0
    3.1136   -0.1300    0.0000 C   0  0  0  0  0  0  0  0  0  0  0  0
    2.2791   -0.6115    0.0000 C   0  0  0  0  0  0  0  0  0  0  0  0
    1.4449   -0.1296    0.0000 C   0  0  0  0  0  0  0  0  0  0  0  0
    1.4451    0.8338    0.0000 C   0  0  0  0  0  0  0  0  0  0  0  0
    2.2796    1.3153    0.0000 C   0  0  0  0  0  0  0  0  0  0  0  0
    0.4819    0.8338    0.0000 C   0  0  2  0  0  0  0  0  0  0  0  0
    1.3164    1.3152    0.0000 C   0  0  0  0  0  0  0  0  0  0  0  0
    1.3167    2.2786    0.0000 C   0  0  0  0  0  0  0  0  0  0  0  0
    0.4825    2.7606    0.0000 C   0  0  0  0  0  0  0  0  0  0  0  0
   -0.3520    2.2792    0.0000 C   0  0  0  0  0  0  0  0  0  0  0  0
   -0.3523    1.3158    0.0000 C   0  0  2  0  0  0  0  0  0  0  0  0
   -1.1864    1.7977    0.0000 H   0  0  0  0  0  0  0  0  0  0  0  0
   -0.3523    0.3525    0.0000 C   0  0  2  0  0  0  0  0  0  0  0  0
   -0.8337    1.1870    0.0000 H   0  0  0  0  0  0  0  0  0  0  0  0
    0.6107    0.3524    0.0000 C   0  0  0  0  0  0  0  0  0  0  0  0
   -0.8344   -0.4814    0.0000 N   0  0  0  0  0  0  0  0  0  0  0  0
   -1.7650   -0.7303    0.0000 C   0  0  0  0  0  0  0  0  0  0  0  0
   -0.0002   -0.9634    0.0000 C   0  0  0  0  0  0  0  0  0  0  0  0
    0.0000    0.0000    0.0000 C   0  0  0  0  0  0  0  0  0  0  0  0
  1  2  1  0  0  0  0
  2  3  1  0  0  0  0
  3  8  1  0  0  0  0
  3  4  2  0  0  0  0
  4  5  1  0  0  0  0
  5  6  2  0  0  0  0
  6 18  1  0  0  0  0
  6  7  1  0  0  0  0
  7  8  2  0  0  0  0
  9  7  1  1  0  0  0
  9 14  1  0  0  0  0
  9 22  1  0  0  0  0
  9 10  1  0  0  0  0
 10 11  1  0  0  0  0
 11 12  1  0  0  0  0
 12 13  1  0  0  0  0
 13 14  1  0  0  0  0
 14 15  1  6  0  0  0
 14 16  1  0  0  0  0
 16 17  1  1  0  0  0
 16 18  1  0  0  0  0
 16 19  1  0  0  0  0
 19 20  1  0  0  0  0
 19 21  1  0  0  0  0
 21 22  1  0  0  0  0
M  END
$$$$

 OpenBabel10082008492D

 10  9  0  0  0  0  0  0  0  0999 V2000
    0.8660    0.5000    0.0000 C   0  0  0  0  0  0  0  0  0  0  0  0
    0.8660    1.5000    0.0000 C   0  0  0  0  0  0  0  0  0  0  0  0
    0.0000    2.0000    0.0000 C   0  0  0  0  0  0  0  0  0  0  0  0
   -0.8660    1.5000    0.0000 C   0  0  0  0  0  0  0  0  0  0  0  0
   -1.7321    2.0000    0.0000 C   0  0  0  0  0  0  0  0  0  0  0  0
   -2.5981    1.5000    0.0000 C   0  0  0  0  0  0  0  0  0  0  0  0
   -3.4641    2.0000    0.0000 C   0  0  0  0  0  0  0  0  0  0  0  0
   -0.8660    0.5000    0.0000 C   0  0  0  0  0  0  0  0  0  0  0  0
   -1.7321   -0.0000    0.0000 O   0  0  0  0  0  0  0  0  0  0  0  0
    0.0000    0.0000    0.0000 O   0  0  0  0  0  0  0  0  0  0  0  0
  1  2  1  0  0  0  0
  2  3  1  0  0  0  0
  3  4  1  0  0  0  0
  4  5  1  0  0  0  0
  4  8  1  0  0  0  0
  5  6  1  0  0  0  0
  6  7  1  0  0  0  0
  8  9  2  0  0  0  0
  8 10  1  0  0  0  0
M  END
$$$$

 OpenBabel10082008492D

 21 21  0  0  0  0  0  0  0  0999 V2000
    4.6190   -4.7871    0.0000 C   0  0  0  0  0  0  0  0  0  0  0  0
    5.0257   -3.8735    0.0000 N   0  0  0  0  0  0  0  0  0  0  0  0
    4.4379   -3.0645    0.0000 C   0  0  0  0  0  0  0  0  0  0  0  0
    4.8446   -2.1510    0.0000 C   0  0  0  0  0  0  0  0  0  0  0  0
    4.2569   -1.3420    0.0000 N   0  3  0  0  0  0  0  0  0  0  0  0
    4.6636   -0.4284    0.0000 O   0  0  0  0  0  0  0  0  0  0  0  0
    3.2623   -1.4465    0.0000 O   0  5  0  0  0  0  0  0  0  0  0  0
    3.4434   -3.1691    0.0000 N   0  0  0  0  0  0  0  0  0  0  0  0
    2.8556   -2.3600    0.0000 C   0  0  0  0  0  0  0  0  0  0  0  0
    1.8611   -2.4646    0.0000 C   0  0  0  0  0  0  0  0  0  0  0  0
    1.2733   -1.6555    0.0000 S   0  0  0  0  0  0  0  0  0  0  0  0
    0.2788   -1.7601    0.0000 C   0  0  0  0  0  0  0  0  0  0  0  0
   -0.3090   -0.9511    0.0000 C   0  0  0  0  0  0  0  0  0  0  0  0
   -1.3090   -0.9511    0.0000 C   0  0  0  0  0  0  0  0  0  0  0  0
   -1.6180    0.0000    0.0000 S   0  0  0  0  0  0  0  0  0  0  0  0
   -0.8090    0.5878    0.0000 C   0  0  0  0  0  0  0  0  0  0  0  0
   -0.8090    1.5878    0.0000 C   0  0  0  0  0  0  0  0  0  0  0  0
   -1.6750    2.0878    0.0000 N   0  0  0  0  0  0  0  0  0  0  0  0
   -1.6750    3.0878    0.0000 C   0  0  0  0  0  0  0  0  0  0  0  0
   -2.5411    1.5878    0.0000 C   0  0  0  0  0  0  0  0  0  0  0  0
    0.0000    0.0000    0.0000 N   0  0  0  0  0  0  0  0  0  0  0  0
  1  2  1  0  0  0  0
  2  3  1  0  0  0  0
  3  4  2  3  0  0  0
  3  8  1  0  0  0  0
  4  5  1  0  0  0  0
  5  6  2  0  0  0  0
  5  7  1  0  0  0  0
  8  9  1  0  0  0  0
  9 10  1  0  0  0  0
 10 11  1  0  0  0  0
 11 12  1  0  0  0  0
 12 13  1  0  0  0  0
 13 21  1  0  0  0  0
 13 14  2  0  0  0  0
 14 15  1  0  0  0  0
 15 16  1  0  0  0  0
 16 17  1  0  0  0  0
 16 21  2  0  0  0  0
 17 18  1  0  0  0  0
 18 19  1  0  0  0  0
 18 20  1  0  0  0  0
M  CHG  2   5   1   7  -1
M  END
$$$$

 OpenBabel10082008492D

 34 36  0  0  1  0  0  0  0  0999 V2000
   -3.4641    1.0000    0.0000 C   0  0  0  0  0  0  0  0  0  0  0  0
   -3.4641   -0.0000    0.0000 O   0  0  0  0  0  0  0  0  0  0  0  0
   -2.5981   -0.5000    0.0000 C   0  0  0  0  0  0  0  0  0  0  0  0
   -1.7321   -0.0000    0.0000 C   0  0  0  0  0  0  0  0  0  0  0  0
   -0.8660   -0.5000    0.0000 C   0  0  0  0  0  0  0  0  0  0  0  0
   -0.8660   -1.5000    0.0000 C   0  0  0  0  0  0  0  0  0  0  0  0
   -1.7321   -2.0000    0.0000 C   0  0  0  0  0  0  0  0  0  0  0  0
   -2.5981   -1.5000    0.0000 C   0  0  0  0  0  0  0  0  0  0  0  0
   -3.4641   -2.0000    0.0000 O   0  0  0  0  0  0  0  0  0  0  0  0
   -3.4641   -3.0000    0.0000 C   0  0  0  0  0  0  0  0  0  0  0  0
   -0.0000   -2.0000    0.0000 C   0  0  1  0  0  0  0  0  0  0  0  0
   -0.8660   -2.5000    0.0000 H   0  0  0  0  0  0  0  0  0  0  0  0
    0.0000   -3.0000    0.0000 C   0  0  0  0  0  0  0  0  0  0  0  0
    0.8660   -3.5000    0.0000 C   0  0  1  0  0  0  0  0  0  0  0  0
    0.3660   -4.3660    0.0000 H   0  0  0  0  0  0  0  0  0  0  0  0
    1.3660   -4.3660    0.0000 O   0  0  0  0  0  0  0  0  0  0  0  0
    0.8660   -5.2321    0.0000 C   0  0  0  0  0  0  0  0  0  0  0  0
    1.3660   -6.0981    0.0000 O   0  0  0  0  0  0  0  0  0  0  0  0
   -0.1340   -5.2321    0.0000 C   0  0  1  0  0  0  0  0  0  0  0  0
   -1.0000   -4.7321    0.0000 H   0  0  0  0  0  0  0  0  0  0  0  0
   -0.1340   -4.2321    0.0000 N   0  0  0  0  0  0  0  0  0  0  0  0
   -0.6340   -6.0981    0.0000 C   0  0  0  0  0  0  0  0  0  0  0  0
   -0.1340   -6.9641    0.0000 C   0  0  0  0  0  0  0  0  0  0  0  0
   -1.6340   -6.0981    0.0000 C   0  0  0  0  0  0  0  0  0  0  0  0
    1.7321   -3.0000    0.0000 C   0  0  2  0  0  0  0  0  0  0  0  0
    2.2321   -3.8660    0.0000 H   0  0  0  0  0  0  0  0  0  0  0  0
    2.7321   -3.0000    0.0000 C   0  0  0  0  0  0  0  0  0  0  0  0
    3.2321   -2.1340    0.0000 C   0  0  0  0  0  0  0  0  0  0  0  0
    4.2321   -2.1340    0.0000 C   0  0  0  0  0  0  0  0  0  0  0  0
    2.7321   -1.2679    0.0000 C   0  0  0  0  0  0  0  0  0  0  0  0
    1.7321   -2.0000    0.0000 C   0  0  0  0  0  0  0  0  0  0  0  0
    0.8660   -1.5000    0.0000 N   0  0  3  0  0  0  0  0  0  0  0  0
    0.8660   -0.5000    0.0000 C   0  0  0  0  0  0  0  0  0  0  0  0
    0.0000   -0.0000    0.0000 C   0  0  0  0  0  0  0  0  0  0  0  0
  1  2  1  0  0  0  0
  2  3  1  0  0  0  0
  3  8  1  0  0  0  0
  3  4  2  0  0  0  0
  4  5  1  0  0  0  0
  5 34  1  0  0  0  0
  5  6  2  0  0  0  0
  6  7  1  0  0  0  0
  6 11  1  0  0  0  0
  7  8  2  0  0  0  0
  8  9  1  0  0  0  0
  9 10  1  0  0  0  0
 11 12  1  1  0  0  0
 11 32  1  0  0  0  0
 11 13  1  0  0  0  0
 13 14  1  0  0  0  0
 14 15  1  1  0  0  0
 14 16  1  0  0  0  0
 14 25  1  0  0  0  0
 16 17  1  0  0  0  0
 17 18  2  0  0  0  0
 17 19  1  0  0  0  0
 19 20  1  1  0  0  0
 19 21  1  0  0  0  0
 19 22  1  0  0  0  0
 22 23  1  0  0  0  0
 22 24  1  0  0  0  0
 25 26  1  6  0  0  0
 25 27  1  0  0  0  0
 25 31  1  0  0  0  0
 27 28  1  0  0  0  0
 28 29  1  0  0  0  0
 28 30  1  0  0  0  0
 31 32  1  0  0  0  0
 32 33  1  0  0  0  0
 33 34  1  0  0  0  0
M  END
$$$$

 OpenBabel10082008492D

 24 26  0  0  1  0  0  0  0  0999 V2000
    3.7053   -0.5000    0.0000 N   0  0  0  0  0  0  0  0  0  0  0  0
    3.9641   -1.4659    0.0000 C   0  0  2  0  0  0  0  0  0  0  0  0
    4.8674   -1.0370    0.0000 H   0  0  0  0  0  0  0  0  0  0  0  0
    3.9641   -2.4659    0.0000 C   0  0  0  0  0  0  0  0  0  0  0  0
    3.0981   -1.9659    0.0000 C   0  0  1  0  0  0  0  0  0  0  0  0
    2.2321   -1.4659    0.0000 H   0  0  0  0  0  0  0  0  0  0  0  0
    2.2321   -2.4659    0.0000 C   0  0  0  0  0  0  0  0  0  0  0  0
    2.2321   -3.4659    0.0000 C   0  0  0  0  0  0  0  0  0  0  0  0
    1.3660   -3.9659    0.0000 C   0  0  0  0  0  0  0  0  0  0  0  0
    0.5000   -3.4659    0.0000 C   0  0  0  0  0  0  0  0  0  0  0  0
    0.5000   -2.4659    0.0000 C   0  0  0  0  0  0  0  0  0  0  0  0
    1.3660   -1.9659    0.0000 C   0  0  0  0  0  0  0  0  0  0  0  0
    9.0727   -0.5000    0.0000 N   0  0  0  0  0  0  0  0  0  0  0  0
    9.3316   -1.4659    0.0000 C   0  0  1  0  0  0  0  0  0  0  0  0
   10.2349   -1.0370    0.0000 H   0  0  0  0  0  0  0  0  0  0  0  0
    9.3316   -2.4659    0.0000 C   0  0  0  0  0  0  0  0  0  0  0  0
    8.4655   -1.9659    0.0000 C   0  0  2  0  0  0  0  0  0  0  0  0
    7.5995   -1.4659    0.0000 H   0  0  0  0  0  0  0  0  0  0  0  0
    7.5995   -2.4659    0.0000 C   0  0  0  0  0  0  0  0  0  0  0  0
    7.5995   -3.4659    0.0000 C   0  0  0  0  0  0  0  0  0  0  0  0
    6.7335   -3.9659    0.0000 C   0  0  0  0  0  0  0  0  0  0  0  0
    5.8674   -3.4659    0.0000 C   0  0  0  0  0  0  0  0  0  0  0  0
    5.8674   -2.4659    0.0000 C   0  0  0  0  0  0  0  0  0  0  0  0
    6.7335   -1.9659    0.0000 C   0  0  0  0  0  0  0  0  0  0  0  0
  1  2  1  0  0  0  0
  2  3  1  1  0  0  0
  2  5  1  0  0  0  0
  2  4  1  0  0  0  0
  4  5  1  0  0  0  0
  5  6  1  6  0  0  0
  5  7  1  0  0  0  0
  7 12  1  0  0  0  0
  7  8  2  0  0  0  0
  8  9  1  0  0  0  0
  9 10  2  0  0  0  0
 10 11  1  0  0  0  0
 11 12  2  0  0  0  0
 13 14  1  0  0  0  0
 14 15  1  6  0  0  0
 14 17  1  0  0  0  0
 14 16  1  0  0  0  0
 16 17  1  0  0  0  0
 17 18  1  1  0  0  0
 17 19  1  0  0  0  0
 19 24  1  0  0  0  0
 19 20  2  0  0  0  0
 20 21  1  0  0  0  0
 21 22  2  0  0  0  0
 22 23  1  0  0  0  0
 23 24  2  0  0  0  0
M  END
$$$$

 OpenBabel10082008492D

 33 36  0  0  0  0  0  0  0  0999 V2000
    3.4641    6.0000    0.0000 C   0  0  0  0  0  0  0  0  0  0  0  0
    3.4641    5.0000    0.0000 O   0  0  0  0  0  0  0  0  0  0  0  0
    4.3301    4.5000    0.0000 C   0  0  0  0  0  0  0  0  0  0  0  0
    5.1962    5.0000    0.0000 C   0  0  0  0  0  0  0  0  0  0  0  0
    6.0622    4.5000    0.0000 C   0  0  0  0  0  0  0  0  0  0  0  0
    6.9282    5.0000    0.0000 N   0  0  0  0  0  0  0  0  0  0  0  0
    7.7942    4.5000    0.0000 C   0  0  0  0  0  0  0  0  0  0  0  0
    7.7942    3.5000    0.0000 N   0  0  0  0  0  0  0  0  0  0  0  0
    6.9282    3.0000    0.0000 C   0  0  0  0  0  0  0  0  0  0  0  0
    6.9282    2.0000    0.0000 N   0  0  0  0  0  0  0  0  0  0  0  0
    7.7942    1.5000    0.0000 C   0  0  0  0  0  0  0  0  0  0  0  0
    8.6603    2.0000    0.0000 C   0  0  0  0  0  0  0  0  0  0  0  0
    9.5263    1.5000    0.0000 C   0  0  0  0  0  0  0  0  0  0  0  0
    9.5263    0.5000    0.0000 C   0  0  0  0  0  0  0  0  0  0  0  0
   10.3923   -0.0000    0.0000 F   0  0  0  0  0  0  0  0  0  0  0  0
    8.6603   -0.0000    0.0000 C   0  0  0  0  0  0  0  0  0  0  0  0
    8.6603   -1.0000    0.0000 Cl  0  0  0  0  0  0  0  0  0  0  0  0
    7.7942    0.5000    0.0000 C   0  0  0  0  0  0  0  0  0  0  0  0
    6.0622    3.5000    0.0000 C   0  0  0  0  0  0  0  0  0  0  0  0
    5.1962    3.0000    0.0000 C   0  0  0  0  0  0  0  0  0  0  0  0
    4.3301    3.5000    0.0000 C   0  0  0  0  0  0  0  0  0  0  0  0
    3.4641    3.0000    0.0000 N   0  0  0  0  0  0  0  0  0  0  0  0
    2.5981    3.5000    0.0000 C   0  0  0  0  0  0  0  0  0  0  0  0
    2.5981    4.5000    0.0000 O   0  0  0  0  0  0  0  0  0  0  0  0
    1.7321    3.0000    0.0000 C   0  0  0  0  0  0  0  0  0  0  0  0
    1.7321    2.0000    0.0000 C   0  0  0  0  0  0  0  0  0  0  0  0
    0.8660    1.5000    0.0000 C   0  0  0  0  0  0  0  0  0  0  0  0
    0.8660    0.5000    0.0000 N   0  0  0  0  0  0  0  0  0  0  0  0
    1.7321   -0.0000    0.0000 C   0  0  0  0  0  0  0  0  0  0  0  0
    1.7321   -1.0000    0.0000 C   0  0  0  0  0  0  0  0  0  0  0  0
    0.8660   -1.5000    0.0000 C   0  0  0  0  0  0  0  0  0  0  0  0
   -0.0000   -1.0000    0.0000 C   0  0  0  0  0  0  0  0  0  0  0  0
    0.0000   -0.0000    0.0000 C   0  0  0  0  0  0  0  0  0  0  0  0
  1  2  1  0  0  0  0
  2  3  1  0  0  0  0
  3 21  1  0  0  0  0
  3  4  2  0  0  0  0
  4  5  1  0  0  0  0
  5 19  1  0  0  0  0
  5  6  2  0  0  0  0
  6  7  1  0  0  0  0
  7  8  2  0  0  0  0
  8  9  1  0  0  0  0
  9 10  1  0  0  0  0
  9 19  2  0  0  0  0
 10 11  1  0  0  0  0
 11 18  1  0  0  0  0
 11 12  2  0  0  0  0
 12 13  1  0  0  0  0
 13 14  2  0  0  0  0
 14 15  1  0  0  0  0
 14 16  1  0  0  0  0
 16 17  1  0  0  0  0
 16 18  2  0  0  0  0
 19 20  1  0  0  0  0
 20 21  2  0  0  0  0
 21 22  1  0  0  0  0
 22 23  1  0  0  0  0
 23 24  2  0  0  0  0
 23 25  1  0  0  0  0
 25 26  2  0  0  0  0
 26 27  1  0  0  0  0
 27 28  1  0  0  0  0
 28 33  1  0  0  0  0
 28 29  1  0  0  0  0
 29 30  1  0  0  0  0
 30 31  1  0  0  0  0
 31 32  1  0  0  0  0
 32 33  1  0  0  0  0
M  END
$$$$

 OpenBabel10082008492D

 30 33  0  0  0  0  0  0  0  0999 V2000
    4.3301    3.5000    0.0000 C   0  0  0  0  0  0  0  0  0  0  0  0
    3.4641    3.0000    0.0000 O   0  0  0  0  0  0  0  0  0  0  0  0
    3.4641    2.0000    0.0000 C   0  0  0  0  0  0  0  0  0  0  0  0
    4.3301    1.5000    0.0000 C   0  0  0  0  0  0  0  0  0  0  0  0
    4.3301    0.5000    0.0000 C   0  0  0  0  0  0  0  0  0  0  0  0
    5.1962    0.0000    0.0000 C   0  0  0  0  0  0  0  0  0  0  0  0
    6.0622    0.5000    0.0000 N   0  0  0  0  0  0  0  0  0  0  0  0
    6.9282    0.0000    0.0000 C   0  0  0  0  0  0  0  0  0  0  0  0
    7.7942    0.5000    0.0000 C   0  0  0  0  0  0  0  0  0  0  0  0
    8.6603    0.0000    0.0000 C   0  0  0  0  0  0  0  0  0  0  0  0
    8.6603   -1.0000    0.0000 C   0  0  0  0  0  0  0  0  0  0  0  0
    9.5263   -1.5000    0.0000 Br  0  0  0  0  0  0  0  0  0  0  0  0
    7.7942   -1.5000    0.0000 C   0  0  0  0  0  0  0  0  0  0  0  0
    6.9282   -1.0000    0.0000 C   0  0  0  0  0  0  0  0  0  0  0  0
    6.0622   -1.5000    0.0000 F   0  0  0  0  0  0  0  0  0  0  0  0
    5.1962   -1.0000    0.0000 N   0  0  0  0  0  0  0  0  0  0  0  0
    4.3301   -1.5000    0.0000 C   0  0  0  0  0  0  0  0  0  0  0  0
    3.4641   -1.0000    0.0000 N   0  0  0  0  0  0  0  0  0  0  0  0
    3.4641    0.0000    0.0000 C   0  0  0  0  0  0  0  0  0  0  0  0
    2.5981    0.5000    0.0000 C   0  0  0  0  0  0  0  0  0  0  0  0
    2.5981    1.5000    0.0000 C   0  0  0  0  0  0  0  0  0  0  0  0
    1.7321    2.0000    0.0000 O   0  0  0  0  0  0  0  0  0  0  0  0
    0.8660    1.5000    0.0000 C   0  0  0  0  0  0  0  0  0  0  0  0
    0.8660    0.5000    0.0000 C   0  0  0  0  0  0  0  0  0  0  0  0
    1.7321    0.0000    0.0000 C   0  0  0  0  0  0  0  0  0  0  0  0
    1.7321   -1.0000    0.0000 C   0  0  0  0  0  0  0  0  0  0  0  0
    0.8660   -1.5000    0.0000 N   0  0  0  0  0  0  0  0  0  0  0  0
    0.8660   -2.5000    0.0000 C   0  0  0  0  0  0  0  0  0  0  0  0
    0.0000   -1.0000    0.0000 C   0  0  0  0  0  0  0  0  0  0  0  0
    0.0000   -0.0000    0.0000 C   0  0  0  0  0  0  0  0  0  0  0  0
  1  2  1  0  0  0  0
  2  3  1  0  0  0  0
  3 21  1  0  0  0  0
  3  4  2  0  0  0  0
  4  5  1  0  0  0  0
  5 19  1  0  0  0  0
  5  6  2  0  0  0  0
  6  7  1  0  0  0  0
  6 16  1  0  0  0  0
  7  8  1  0  0  0  0
  8 14  1  0  0  0  0
  8  9  2  0  0  0  0
  9 10  1  0  0  0  0
 10 11  2  0  0  0  0
 11 12  1  0  0  0  0
 11 13  1  0  0  0  0
 13 14  2  0  0  0  0
 14 15  1  0  0  0  0
 16 17  2  0  0  0  0
 17 18  1  0  0  0  0
 18 19  2  0  0  0  0
 19 20  1  0  0  0  0
 20 21  2  0  0  0  0
 21 22  1  0  0  0  0
 22 23  1  0  0  0  0
 23 24  1  0  0  0  0
 24 30  1  0  0  0  0
 24 25  1  0  0  0  0
 25 26  1  0  0  0  0
 26 27  1  0  0  0  0
 27 28  1  0  0  0  0
 27 29  1  0  0  0  0
 29 30  1  0  0  0  0
M  END
$$$$

 OpenBabel10082008492D

 23 26  0  0  0  0  0  0  0  0999 V2000
    1.1012    3.3573    0.0000 C   0  0  0  0  0  0  0  0  0  0  0  0
    1.0863    2.3574    0.0000 C   0  0  0  0  0  0  0  0  0  0  0  0
    1.8864    1.7576    0.0000 N   0  0  0  0  0  0  0  0  0  0  0  0
    1.5632    0.8113    0.0000 C   0  0  0  0  0  0  0  0  0  0  0  0
    0.5633    0.8262    0.0000 C   0  0  0  0  0  0  0  0  0  0  0  0
    0.2686    1.7818    0.0000 N   0  0  0  0  0  0  0  0  0  0  0  0
   -0.6623    2.1472    0.0000 C   0  0  0  0  0  0  0  0  0  0  0  0
   -0.6623    3.1472    0.0000 C   0  0  0  0  0  0  0  0  0  0  0  0
   -1.5283    3.6472    0.0000 C   0  0  0  0  0  0  0  0  0  0  0  0
   -2.3944    3.1472    0.0000 C   0  0  0  0  0  0  0  0  0  0  0  0
   -3.2604    3.6472    0.0000 Cl  0  0  0  0  0  0  0  0  0  0  0  0
   -2.3944    2.1472    0.0000 C   0  0  0  0  0  0  0  0  0  0  0  0
   -1.5283    1.6472    0.0000 C   0  0  0  0  0  0  0  0  0  0  0  0
   -1.6774    0.6583    0.0000 C   0  0  0  0  0  0  0  0  0  0  0  0
   -2.6329    0.3636    0.0000 C   0  0  0  0  0  0  0  0  0  0  0  0
   -2.8555   -0.6114    0.0000 C   0  0  0  0  0  0  0  0  0  0  0  0
   -3.8110   -0.9061    0.0000 C   0  0  0  0  0  0  0  0  0  0  0  0
   -4.5441   -0.2259    0.0000 C   0  0  0  0  0  0  0  0  0  0  0  0
   -4.3216    0.7490    0.0000 C   0  0  0  0  0  0  0  0  0  0  0  0
   -3.3660    1.0437    0.0000 C   0  0  0  0  0  0  0  0  0  0  0  0
   -3.1435    2.0187    0.0000 F   0  0  0  0  0  0  0  0  0  0  0  0
   -0.9972   -0.0747    0.0000 N   0  0  0  0  0  0  0  0  0  0  0  0
    0.0000   -0.0000    0.0000 C   0  0  0  0  0  0  0  0  0  0  0  0
  1  2  1  0  0  0  0
  2  6  1  0  0  0  0
  2  3  2  0  0  0  0
  3  4  1  0  0  0  0
  4  5  2  0  0  0  0
  5 23  1  0  0  0  0
  5  6  1  0  0  0  0
  6  7  1  0  0  0  0
  7 13  1  0  0  0  0
  7  8  2  0  0  0  0
  8  9  1  0  0  0  0
  9 10  2  0  0  0  0
 10 11  1  0  0  0  0
 10 12  1  0  0  0  0
 12 13  2  0  0  0  0
 13 14  1  0  0  0  0
 14 15  1  0  0  0  0
 14 22  2  0  0  0  0
 15 20  1  0  0  0  0
 15 16  2  0  0  0  0
 16 17  1  0  0  0  0
 17 18  2  0  0  0  0
 18 19  1  0  0  0  0
 19 20  2  0  0  0  0
 20 21  1  0  0  0  0
 22 23  1  0  0  0  0
M  END
$$$$

 OpenBabel10082008492D

 25 28  0  0  0  0  0  0  0  0999 V2000
   -0.8660   -0.5000    0.0000 O   0  0  0  0  0  0  0  0  0  0  0  0
   -1.7321   -0.0000    0.0000 C   0  0  0  0  0  0  0  0  0  0  0  0
   -2.5981   -0.5000    0.0000 O   0  0  0  0  0  0  0  0  0  0  0  0
   -3.4641   -0.0000    0.0000 C   0  0  0  0  0  0  0  0  0  0  0  0
   -4.3301   -0.5000    0.0000 C   0  0  0  0  0  0  0  0  0  0  0  0
   -5.1962   -0.0000    0.0000 C   0  0  0  0  0  0  0  0  0  0  0  0
   -5.1962    1.0000    0.0000 C   0  0  0  0  0  0  0  0  0  0  0  0
   -4.3301    1.5000    0.0000 C   0  0  0  0  0  0  0  0  0  0  0  0
   -3.4641    1.0000    0.0000 C   0  0  0  0  0  0  0  0  0  0  0  0
   -2.5981    1.5000    0.0000 C   0  0  0  0  0  0  0  0  0  0  0  0
   -2.5981    2.5000    0.0000 O   0  0  0  0  0  0  0  0  0  0  0  0
   -1.7321    1.0000    0.0000 C   0  0  0  0  0  0  0  0  0  0  0  0
   -0.8660    1.5000    0.0000 C   0  0  0  0  0  0  0  0  0  0  0  0
   -0.0000    1.0000    0.0000 C   0  0  0  0  0  0  0  0  0  0  0  0
    0.8660    1.5000    0.0000 C   0  0  0  0  0  0  0  0  0  0  0  0
    0.8660    2.5000    0.0000 O   0  0  0  0  0  0  0  0  0  0  0  0
    1.7321    1.0000    0.0000 C   0  0  0  0  0  0  0  0  0  0  0  0
    2.5981    1.5000    0.0000 C   0  0  0  0  0  0  0  0  0  0  0  0
    3.4641    1.0000    0.0000 C   0  0  0  0  0  0  0  0  0  0  0  0
    3.4641    0.0000    0.0000 C   0  0  0  0  0  0  0  0  0  0  0  0
    2.5981   -0.5000    0.0000 C   0  0  0  0  0  0  0  0  0  0  0  0
    1.7321    0.0000    0.0000 C   0  0  0  0  0  0  0  0  0  0  0  0
    0.8660   -0.5000    0.0000 O   0  0  0  0  0  0  0  0  0  0  0  0
   -0.0000   -0.0000    0.0000 C   0  0  0  0  0  0  0  0  0  0  0  0
   -0.8660   -0.5000    0.0000 O   0  0  0  0  0  0  0  0  0  0  0  0
  1  2  2  0  0  0  0
  2 12  1  0  0  0  0
  2  3  1  0  0  0  0
  3  4  1  0  0  0  0
  4  9  1  0  0  0  0
  4  5  2  0  0  0  0
  5  6  1  0  0  0  0
  6  7  2  0  0  0  0
  7  8  1  0  0  0  0
  8  9  2  0  0  0  0
  9 10  1  0  0  0  0
 10 11  1  0  0  0  0
 10 12  2  0  0  0  0
 12 13  1  0  0  0  0
 13 14  1  0  0  0  0
 14 24  1  0  0  0  0
 14 15  2  0  0  0  0
 15 16  1  0  0  0  0
 15 17  1  0  0  0  0
 17 22  1  0  0  0  0
 17 18  2  0  0  0  0
 18 19  1  0  0  0  0
 19 20  2  0  0  0  0
 20 21  1  0  0  0  0
 21 22  2  0  0  0  0
 22 23  1  0  0  0  0
 23 24  1  0  0  0  0
 24 25  2  0  0  0  0
M  END
$$$$

 OpenBabel10082008492D

 29 32  0  0  1  0  0  0  0  0999 V2000
   -0.4183   -1.4418    0.0000 C   0  0  0  0  0  0  0  0  0  0  0  0
    0.4900    0.1313    0.0000 N   0  3  0  0  0  0  0  0  0  0  0  0
    1.3982   -1.4418    0.0000 C   0  0  0  0  0  0  0  0  0  0  0  0
    0.0000    0.9798    0.0000 C   0  0  1  0  0  0  0  0  0  0  0  0
   -0.9082    0.9798    0.0000 H   0  0  0  0  0  0  0  0  0  0  0  0
    0.4899    1.8284    0.0000 C   0  0  0  0  0  0  0  0  0  0  0  0
    1.4698    1.8284    0.0000 C   0  0  2  0  0  0  0  0  0  0  0  0
    1.9239    2.6149    0.0000 H   0  0  0  0  0  0  0  0  0  0  0  0
    2.3780    1.8283    0.0000 O   0  0  0  0  0  0  0  0  0  0  0  0
    2.8322    2.6149    0.0000 C   0  0  0  0  0  0  0  0  0  0  0  0
    2.3780    3.4015    0.0000 O   0  0  0  0  0  0  0  0  0  0  0  0
    3.7404    2.6149    0.0000 C   0  0  2  0  0  0  0  0  0  0  0  0
    3.7404    3.5231    0.0000 H   0  0  0  0  0  0  0  0  0  0  0  0
    4.6486    2.6149    0.0000 C   0  0  0  0  0  0  0  0  0  0  0  0
    5.1028    3.4014    0.0000 O   0  0  0  0  0  0  0  0  0  0  0  0
    3.7404    1.7066    0.0000 C   0  0  0  0  0  0  0  0  0  0  0  0
    2.9538    1.2525    0.0000 C   0  0  0  0  0  0  0  0  0  0  0  0
    2.9538    0.3443    0.0000 C   0  0  0  0  0  0  0  0  0  0  0  0
    3.7403   -0.1099    0.0000 C   0  0  0  0  0  0  0  0  0  0  0  0
    4.5269    0.3442    0.0000 C   0  0  0  0  0  0  0  0  0  0  0  0
    4.5269    1.2525    0.0000 C   0  0  0  0  0  0  0  0  0  0  0  0
    1.9597    0.9798    0.0000 C   0  0  0  0  0  0  0  0  0  0  0  0
    1.4698    0.1313    0.0000 C   0  0  2  0  0  0  0  0  0  0  0  0
    1.9239   -0.6553    0.0000 H   0  0  0  0  0  0  0  0  0  0  0  0
    0.6212   -0.3587    0.0000 C   0  0  1  0  0  0  0  0  0  0  0  0
    1.4078   -0.8128    0.0000 H   0  0  0  0  0  0  0  0  0  0  0  0
   -0.0000   -0.7173    0.0000 O   0  0  0  0  0  0  0  0  0  0  0  0
    0.0000   -0.0000    0.0000 C   0  0  1  0  0  0  0  0  0  0  0  0
   -0.7866    0.4541    0.0000 H   0  0  0  0  0  0  0  0  0  0  0  0
  1  2  1  0  0  0  0
  2 23  1  0  0  0  0
  2  3  1  0  0  0  0
  2  4  1  0  0  0  0
  4  5  1  1  0  0  0
  4 28  1  0  0  0  0
  4  6  1  0  0  0  0
  6  7  1  0  0  0  0
  7  8  1  1  0  0  0
  7  9  1  0  0  0  0
  7 22  1  0  0  0  0
  9 10  1  0  0  0  0
 10 11  2  0  0  0  0
 10 12  1  0  0  0  0
 12 13  1  1  0  0  0
 12 14  1  0  0  0  0
 12 16  1  0  0  0  0
 14 15  1  0  0  0  0
 16 21  1  0  0  0  0
 16 17  2  0  0  0  0
 17 18  1  0  0  0  0
 18 19  2  0  0  0  0
 19 20  1  0  0  0  0
 20 21  2  0  0  0  0
 22 23  1  0  0  0  0
 23 24  1  1  0  0  0
 23 25  1  0  0  0  0
 25 26  1  6  0  0  0
 25 28  1  0  0  0  0
 25 27  1  0  0  0  0
 27 28  1  0  0  0  0
 28 29  1  6  0  0  0
M  CHG  1   2   1
M  END
$$$$

 OpenBabel10082008492D

 29 32  0  0  0  0  0  0  0  0999 V2000
   -1.5402    1.2613    0.0000 O   0  0  0  0  0  0  0  0  0  0  0  0
   -0.7971    1.9305    0.0000 C   0  0  0  0  0  0  0  0  0  0  0  0
   -0.9016    2.9250    0.0000 C   0  0  0  0  0  0  0  0  0  0  0  0
   -1.7677    3.4250    0.0000 C   0  0  0  0  0  0  0  0  0  0  0  0
   -1.7677    4.4250    0.0000 C   0  0  0  0  0  0  0  0  0  0  0  0
   -2.6337    4.9250    0.0000 S   0  3  3  0  0  0  0  0  0  0  0  0
   -2.6337    5.9250    0.0000 O   0  5  0  0  0  0  0  0  0  0  0  0
   -3.4997    4.4250    0.0000 C   0  0  0  0  0  0  0  0  0  0  0  0
   -3.4997    3.4250    0.0000 C   0  0  0  0  0  0  0  0  0  0  0  0
   -4.3657    2.9250    0.0000 C   0  0  0  0  0  0  0  0  0  0  0  0
   -5.2318    3.4250    0.0000 C   0  0  0  0  0  0  0  0  0  0  0  0
   -5.2318    4.4250    0.0000 C   0  0  0  0  0  0  0  0  0  0  0  0
   -4.3657    4.9250    0.0000 C   0  0  0  0  0  0  0  0  0  0  0  0
    0.0119    3.3317    0.0000 C   0  0  0  0  0  0  0  0  0  0  0  0
    0.2198    4.3099    0.0000 O   0  0  0  0  0  0  0  0  0  0  0  0
    0.6810    2.5886    0.0000 N   0  0  0  0  0  0  0  0  0  0  0  0
    1.6756    2.6931    0.0000 C   0  0  0  0  0  0  0  0  0  0  0  0
    2.0823    3.6067    0.0000 C   0  0  0  0  0  0  0  0  0  0  0  0
    3.0768    3.7112    0.0000 C   0  0  0  0  0  0  0  0  0  0  0  0
    3.6646    2.9022    0.0000 C   0  0  0  0  0  0  0  0  0  0  0  0
    3.2579    1.9886    0.0000 C   0  0  0  0  0  0  0  0  0  0  0  0
    2.2634    1.8841    0.0000 C   0  0  0  0  0  0  0  0  0  0  0  0
    0.1810    1.7226    0.0000 N   0  0  0  0  0  0  0  0  0  0  0  0
    0.5878    0.8090    0.0000 C   0  0  0  0  0  0  0  0  0  0  0  0
    1.5823    0.7045    0.0000 C   0  0  0  0  0  0  0  0  0  0  0  0
    1.9890   -0.2091    0.0000 C   0  0  0  0  0  0  0  0  0  0  0  0
    1.4013   -1.0181    0.0000 C   0  0  0  0  0  0  0  0  0  0  0  0
    0.4067   -0.9135    0.0000 C   0  0  0  0  0  0  0  0  0  0  0  0
    0.0000    0.0000    0.0000 C   0  0  0  0  0  0  0  0  0  0  0  0
  1  2  2  0  0  0  0
  2 23  1  0  0  0  0
  2  3  1  0  0  0  0
  3  4  1  0  0  0  0
  3 14  1  0  0  0  0
  4  5  1  0  0  0  0
  5  6  1  0  0  0  0
  6  7  1  0  0  0  0
  6  8  1  0  0  0  0
  8 13  1  0  0  0  0
  8  9  2  0  0  0  0
  9 10  1  0  0  0  0
 10 11  2  0  0  0  0
 11 12  1  0  0  0  0
 12 13  2  0  0  0  0
 14 15  2  0  0  0  0
 14 16  1  0  0  0  0
 16 17  1  0  0  0  0
 16 23  1  0  0  0  0
 17 22  1  0  0  0  0
 17 18  2  0  0  0  0
 18 19  1  0  0  0  0
 19 20  2  0  0  0  0
 20 21  1  0  0  0  0
 21 22  2  0  0  0  0
 23 24  1  0  0  0  0
 24 29  1  0  0  0  0
 24 25  2  0  0  0  0
 25 26  1  0  0  0  0
 26 27  2  0  0  0  0
 27 28  1  0  0  0  0
 28 29  2  0  0  0  0
M  CHG  2   6   1   7  -1
M  END
$$$$

 OpenBabel10082008492D

 43 48  0  0  0  0  0  0  0  0999 V2000
    2.5882   -3.1389    0.0000 C   0  0  0  0  0  0  0  0  0  0  0  0
    1.6372   -3.4479    0.0000 C   0  0  0  0  0  0  0  0  0  0  0  0
    0.8940   -2.7788    0.0000 O   0  0  0  0  0  0  0  0  0  0  0  0
   -0.0570   -3.0878    0.0000 C   0  0  0  0  0  0  0  0  0  0  0  0
   -0.3660   -4.0388    0.0000 N   0  0  0  0  0  0  0  0  0  0  0  0
   -1.3660   -4.0388    0.0000 C   0  0  0  0  0  0  0  0  0  0  0  0
   -2.0352   -4.7820    0.0000 C   0  0  0  0  0  0  0  0  0  0  0  0
   -3.0133   -4.5741    0.0000 C   0  0  0  0  0  0  0  0  0  0  0  0
   -3.3223   -3.6230    0.0000 C   0  0  0  0  0  0  0  0  0  0  0  0
   -2.6532   -2.8799    0.0000 C   0  0  0  0  0  0  0  0  0  0  0  0
   -2.9622   -1.9288    0.0000 C   0  0  0  0  0  0  0  0  0  0  0  0
   -2.2931   -1.1857    0.0000 O   0  0  0  0  0  0  0  0  0  0  0  0
   -3.9404   -1.7209    0.0000 O   0  0  0  0  0  0  0  0  0  0  0  0
   -4.6095   -2.4641    0.0000 C   0  0  0  0  0  0  0  0  0  0  0  0
   -5.5876   -2.2561    0.0000 C   0  0  0  0  0  0  0  0  0  0  0  0
   -6.3308   -2.9253    0.0000 O   0  0  0  0  0  0  0  0  0  0  0  0
   -7.1968   -2.4253    0.0000 C   0  0  0  0  0  0  0  0  0  0  0  0
   -8.1103   -2.8320    0.0000 O   0  0  0  0  0  0  0  0  0  0  0  0
   -6.9889   -1.4471    0.0000 O   0  0  0  0  0  0  0  0  0  0  0  0
   -5.9944   -1.3426    0.0000 C   0  0  0  0  0  0  0  0  0  0  0  0
   -5.4944   -0.4766    0.0000 C   0  0  0  0  0  0  0  0  0  0  0  0
   -1.6750   -3.0878    0.0000 C   0  0  0  0  0  0  0  0  0  0  0  0
   -0.8660   -2.5000    0.0000 N   0  0  0  0  0  0  0  0  0  0  0  0
   -0.8660   -1.5000    0.0000 C   0  0  0  0  0  0  0  0  0  0  0  0
   -0.0000   -1.0000    0.0000 C   0  0  0  0  0  0  0  0  0  0  0  0
    0.8660   -1.5000    0.0000 C   0  0  0  0  0  0  0  0  0  0  0  0
    1.7321   -1.0000    0.0000 C   0  0  0  0  0  0  0  0  0  0  0  0
    1.7321   -0.0000    0.0000 C   0  0  0  0  0  0  0  0  0  0  0  0
    2.5981    0.5000    0.0000 C   0  0  0  0  0  0  0  0  0  0  0  0
    3.4641   -0.0000    0.0000 C   0  0  0  0  0  0  0  0  0  0  0  0
    4.3301    0.5000    0.0000 C   0  0  0  0  0  0  0  0  0  0  0  0
    4.3301    1.5000    0.0000 C   0  0  0  0  0  0  0  0  0  0  0  0
    3.4641    2.0000    0.0000 C   0  0  0  0  0  0  0  0  0  0  0  0
    2.5981    1.5000    0.0000 C   0  0  0  0  0  0  0  0  0  0  0  0
    1.7321    2.0000    0.0000 C   0  0  0  0  0  0  0  0  0  0  0  0
    0.8185    1.5933    0.0000 N   0  0  0  0  0  0  0  0  0  0  0  0
    0.1494    2.3364    0.0000 O   0  0  0  0  0  0  0  0  0  0  0  0
    0.6494    3.2024    0.0000 C   0  0  0  0  0  0  0  0  0  0  0  0
    0.2426    4.1160    0.0000 O   0  0  0  0  0  0  0  0  0  0  0  0
    1.6275    2.9945    0.0000 N   0  0  0  0  0  0  0  0  0  0  0  0
    2.3707    3.6637    0.0000 H   0  0  0  0  0  0  0  0  0  0  0  0
    0.8660    0.5000    0.0000 C   0  0  0  0  0  0  0  0  0  0  0  0
    0.0000   -0.0000    0.0000 C   0  0  0  0  0  0  0  0  0  0  0  0
  1  2  1  0  0  0  0
  2  3  1  0  0  0  0
  3  4  1  0  0  0  0
  4 23  1  0  0  0  0
  4  5  2  0  0  0  0
  5  6  1  0  0  0  0
  6 22  1  0  0  0  0
  6  7  2  0  0  0  0
  7  8  1  0  0  0  0
  8  9  2  0  0  0  0
  9 10  1  0  0  0  0
 10 11  1  0  0  0  0
 10 22  2  0  0  0  0
 11 12  2  0  0  0  0
 11 13  1  0  0  0  0
 13 14  1  0  0  0  0
 14 15  1  0  0  0  0
 15 20  2  0  0  0  0
 15 16  1  0  0  0  0
 16 17  1  0  0  0  0
 17 18  2  0  0  0  0
 17 19  1  0  0  0  0
 19 20  1  0  0  0  0
 20 21  1  0  0  0  0
 22 23  1  0  0  0  0
 23 24  1  0  0  0  0
 24 25  1  0  0  0  0
 25 43  1  0  0  0  0
 25 26  2  0  0  0  0
 26 27  1  0  0  0  0
 27 28  2  0  0  0  0
 28 29  1  0  0  0  0
 28 42  1  0  0  0  0
 29 34  1  0  0  0  0
 29 30  2  0  0  0  0
 30 31  1  0  0  0  0
 31 32  2  0  0  0  0
 32 33  1  0  0  0  0
 33 34  2  0  0  0  0
 34 35  1  0  0  0  0
 35 40  1  0  0  0  0
 35 36  2  0  0  0  0
 36 37  1  0  0  0  0
 37 38  1  0  0  0  0
 38 39  2  0  0  0  0
 38 40  1  0  0  0  0
 40 41  1  0  0  0  0
 42 43  2  0  0  0  0
M  END
$$$$

 OpenBabel10082008492D

  4  3  0  0  0  0  0  0  0  0999 V2000
    1.7321   -0.0000    0.0000 N   0  0  0  0  0  0  0  0  0  0  0  0
    0.8660    0.5000    0.0000 C   0  0  0  0  0  0  0  0  0  0  0  0
    0.8660    1.5000    0.0000 N   0  0  0  0  0  0  0  0  0  0  0  0
   -0.0000   -0.0000    0.0000 O   0  0  0  0  0  0  0  0  0  0  0  0
  1  2  1  0  0  0  0
  2  3  1  0  0  0  0
  2  4  2  0  0  0  0
M  END
$$$$

 OpenBabel10082008492D

 26 28  0  0  0  0  0  0  0  0999 V2000
    3.0878    0.0570    0.0000 C   0  0  0  0  0  0  0  0  0  0  0  0
    3.5878   -0.8090    0.0000 C   0  0  0  0  0  0  0  0  0  0  0  0
    4.5878   -0.8090    0.0000 C   0  0  0  0  0  0  0  0  0  0  0  0
    5.0878    0.0570    0.0000 O   0  0  0  0  0  0  0  0  0  0  0  0
    6.0878    0.0570    0.0000 C   0  0  0  0  0  0  0  0  0  0  0  0
    6.5878    0.9230    0.0000 C   0  0  0  0  0  0  0  0  0  0  0  0
    6.5878    1.9230    0.0000 F   0  0  0  0  0  0  0  0  0  0  0  0
    5.7218    1.4230    0.0000 F   0  0  0  0  0  0  0  0  0  0  0  0
    7.5878    0.9230    0.0000 F   0  0  0  0  0  0  0  0  0  0  0  0
    5.0878   -1.6750    0.0000 C   0  0  0  0  0  0  0  0  0  0  0  0
    4.5878   -2.5411    0.0000 C   0  0  0  0  0  0  0  0  0  0  0  0
    3.5878   -2.5411    0.0000 N   0  0  0  0  0  0  0  0  0  0  0  0
    3.0878   -1.6750    0.0000 C   0  0  0  0  0  0  0  0  0  0  0  0
    2.0878   -1.6750    0.0000 C   0  0  0  0  0  0  0  0  0  0  0  0
    1.5878   -0.8090    0.0000 S   0  3  1  0  0  0  0  0  0  0  0  0
    2.0878    0.0570    0.0000 O   0  5  0  0  0  0  0  0  0  0  0  0
    0.5878   -0.8090    0.0000 C   0  0  0  0  0  0  0  0  0  0  0  0
    0.0000   -1.6180    0.0000 N   0  0  0  0  0  0  0  0  0  0  0  0
   -0.9511   -1.3090    0.0000 C   0  0  0  0  0  0  0  0  0  0  0  0
   -1.8171   -1.8090    0.0000 C   0  0  0  0  0  0  0  0  0  0  0  0
   -2.6831   -1.3090    0.0000 C   0  0  0  0  0  0  0  0  0  0  0  0
   -2.6831   -0.3090    0.0000 C   0  0  0  0  0  0  0  0  0  0  0  0
   -1.8171    0.1910    0.0000 C   0  0  0  0  0  0  0  0  0  0  0  0
   -0.9511   -0.3090    0.0000 C   0  0  0  0  0  0  0  0  0  0  0  0
   -0.0000   -0.0000    0.0000 N   0  0  0  0  0  0  0  0  0  0  0  0
    0.3090    0.9511    0.0000 H   0  0  0  0  0  0  0  0  0  0  0  0
  1  2  1  0  0  0  0
  2 13  1  0  0  0  0
  2  3  2  0  0  0  0
  3  4  1  0  0  0  0
  3 10  1  0  0  0  0
  4  5  1  0  0  0  0
  5  6  1  0  0  0  0
  6  7  1  0  0  0  0
  6  8  1  0  0  0  0
  6  9  1  0  0  0  0
 10 11  2  0  0  0  0
 11 12  1  0  0  0  0
 12 13  2  0  0  0  0
 13 14  1  0  0  0  0
 15 14  1  6  0  0  0
 15 16  1  0  0  0  0
 15 17  1  0  0  0  0
 17 25  1  0  0  0  0
 17 18  2  0  0  0  0
 18 19  1  0  0  0  0
 19 24  1  0  0  0  0
 19 20  2  0  0  0  0
 20 21  1  0  0  0  0
 21 22  2  0  0  0  0
 22 23  1  0  0  0  0
 23 24  2  0  0  0  0
 24 25  1  0  0  0  0
 25 26  1  0  0  0  0
M  CHG  2  15   1  16  -1
M  END
$$$$

 OpenBabel10082008492D

 14 15  0  0  0  0  0  0  0  0999 V2000
    1.7321    0.0000    0.0000 C   0  0  0  0  0  0  0  0  0  0  0  0
    0.8660   -0.5000    0.0000 N   0  0  0  0  0  0  0  0  0  0  0  0
    0.8660   -1.5000    0.0000 N   0  0  0  0  0  0  0  0  0  0  0  0
    0.0000   -2.0000    0.0000 N   0  0  0  0  0  0  0  0  0  0  0  0
   -0.8660   -1.5000    0.0000 C   0  0  0  0  0  0  0  0  0  0  0  0
   -1.8171   -1.8090    0.0000 C   0  0  0  0  0  0  0  0  0  0  0  0
   -2.1261   -2.7601    0.0000 C   0  0  0  0  0  0  0  0  0  0  0  0
   -3.1042   -2.9680    0.0000 N   0  0  0  0  0  0  0  0  0  0  0  0
   -1.4570   -3.5032    0.0000 O   0  0  0  0  0  0  0  0  0  0  0  0
   -2.4049   -1.0000    0.0000 N   0  0  0  0  0  0  0  0  0  0  0  0
   -1.8171   -0.1910    0.0000 C   0  0  0  0  0  0  0  0  0  0  0  0
   -0.8660   -0.5000    0.0000 N   0  0  0  0  0  0  0  0  0  0  0  0
   -0.0000   -0.0000    0.0000 C   0  0  0  0  0  0  0  0  0  0  0  0
   -0.0000    1.0000    0.0000 O   0  0  0  0  0  0  0  0  0  0  0  0
  1  2  1  0  0  0  0
  2 13  1  0  0  0  0
  2  3  1  0  0  0  0
  3  4  2  0  0  0  0
  4  5  1  0  0  0  0
  5 12  1  0  0  0  0
  5  6  2  0  0  0  0
  6  7  1  0  0  0  0
  6 10  1  0  0  0  0
  7  8  1  0  0  0  0
  7  9  2  0  0  0  0
 10 11  2  0  0  0  0
 11 12  1  0  0  0  0
 12 13  1  0  0  0  0
 13 14  2  0  0  0  0
M  END
$$$$

 OpenBabel10082008492D

 16 16  0  0  0  0  0  0  0  0999 V2000
    0.1340   -1.5000    0.0000 C   0  0  0  0  0  0  0  0  0  0  0  0
    1.0000   -1.0000    0.0000 C   0  0  0  0  0  0  0  0  0  0  0  0
    1.0000    0.0000    0.0000 S   0  0  0  0  0  0  0  0  0  0  0  0
    2.0000    0.0000    0.0000 O   0  0  0  0  0  0  0  0  0  0  0  0
    1.0000    1.0000    0.0000 O   0  0  0  0  0  0  0  0  0  0  0  0
    0.0000    0.0000    0.0000 C   0  0  0  0  0  0  0  0  0  0  0  0
   -0.5000    0.8660    0.0000 C   0  0  0  0  0  0  0  0  0  0  0  0
   -1.5000    0.8660    0.0000 N   0  0  0  0  0  0  0  0  0  0  0  0
   -2.0878    0.0570    0.0000 C   0  0  0  0  0  0  0  0  0  0  0  0
   -1.7788   -0.8940    0.0000 N   0  3  0  0  0  0  0  0  0  0  0  0
   -2.4479   -1.6372    0.0000 O   0  0  0  0  0  0  0  0  0  0  0  0
   -0.8006   -1.1020    0.0000 O   0  5  0  0  0  0  0  0  0  0  0  0
   -3.0388    0.3660    0.0000 C   0  0  0  0  0  0  0  0  0  0  0  0
   -3.0388    1.3660    0.0000 N   0  0  0  0  0  0  0  0  0  0  0  0
   -2.0878    1.6750    0.0000 C   0  0  0  0  0  0  0  0  0  0  0  0
   -1.7788    2.6261    0.0000 C   0  0  0  0  0  0  0  0  0  0  0  0
  1  2  1  0  0  0  0
  2  3  1  0  0  0  0
  3  4  2  0  0  0  0
  3  5  2  0  0  0  0
  3  6  1  0  0  0  0
  6  7  1  0  0  0  0
  7  8  1  0  0  0  0
  8 15  1  0  0  0  0
  8  9  1  0  0  0  0
  9 10  1  0  0  0  0
  9 13  2  0  0  0  0
 10 11  2  0  0  0  0
 10 12  1  0  0  0  0
 13 14  1  0  0  0  0
 14 15  2  0  0  0  0
 15 16  1  0  0  0  0
M  CHG  2  10   1  12  -1
M  END
$$$$

 OpenBabel10082008492D

 15 15  0  0  0  0  0  0  0  0999 V2000
   -1.7321   -3.0000    0.0000 N   0  0  0  0  0  0  0  0  0  0  0  0
   -0.8660   -3.5000    0.0000 C   0  0  0  0  0  0  0  0  0  0  0  0
   -0.8660   -4.5000    0.0000 N   0  0  0  0  0  0  0  0  0  0  0  0
   -0.0000   -3.0000    0.0000 N   0  0  0  0  0  0  0  0  0  0  0  0
   -0.0000   -2.0000    0.0000 C   0  0  0  0  0  0  0  0  0  0  0  0
    0.8660   -1.5000    0.0000 O   0  0  0  0  0  0  0  0  0  0  0  0
   -0.8660   -1.5000    0.0000 C   0  0  0  0  0  0  0  0  0  0  0  0
   -0.8660   -0.5000    0.0000 C   0  0  0  0  0  0  0  0  0  0  0  0
   -1.7321   -0.0000    0.0000 C   0  0  0  0  0  0  0  0  0  0  0  0
   -2.5981   -0.5000    0.0000 Cl  0  0  0  0  0  0  0  0  0  0  0  0
   -1.7321    1.0000    0.0000 C   0  0  0  0  0  0  0  0  0  0  0  0
   -0.8660    1.5000    0.0000 C   0  0  0  0  0  0  0  0  0  0  0  0
   -0.0000    1.0000    0.0000 C   0  0  0  0  0  0  0  0  0  0  0  0
    0.0000   -0.0000    0.0000 C   0  0  0  0  0  0  0  0  0  0  0  0
    0.8660   -0.5000    0.0000 Cl  0  0  0  0  0  0  0  0  0  0  0  0
  1  2  2  0  0  0  0
  2  3  1  0  0  0  0
  2  4  1  0  0  0  0
  4  5  1  0  0  0  0
  5  6  2  0  0  0  0
  5  7  1  0  0  0  0
  7  8  1  0  0  0  0
  8 14  1  0  0  0  0
  8  9  2  0  0  0  0
  9 10  1  0  0  0  0
  9 11  1  0  0  0  0
 11 12  2  0  0  0  0
 12 13  1  0  0  0  0
 13 14  2  0  0  0  0
 14 15  1  0  0  0  0
M  END
$$$$

 OpenBabel10082008492D

 12 13  0  0  0  0  0  0  0  0999 V2000
    1.7321    2.0000    0.0000 N   0  0  0  0  0  0  0  0  0  0  0  0
    0.8660    1.5000    0.0000 N   0  0  0  0  0  0  0  0  0  0  0  0
    0.8660    0.5000    0.0000 C   0  0  0  0  0  0  0  0  0  0  0  0
    1.7321   -0.0000    0.0000 N   0  0  0  0  0  0  0  0  0  0  0  0
    1.7321   -1.0000    0.0000 N   0  0  0  0  0  0  0  0  0  0  0  0
    0.8660   -1.5000    0.0000 C   0  0  0  0  0  0  0  0  0  0  0  0
   -0.0000   -1.0000    0.0000 C   0  0  0  0  0  0  0  0  0  0  0  0
   -0.8660   -1.5000    0.0000 C   0  0  0  0  0  0  0  0  0  0  0  0
   -1.7321   -1.0000    0.0000 C   0  0  0  0  0  0  0  0  0  0  0  0
   -1.7321    0.0000    0.0000 C   0  0  0  0  0  0  0  0  0  0  0  0
   -0.8660    0.5000    0.0000 C   0  0  0  0  0  0  0  0  0  0  0  0
    0.0000   -0.0000    0.0000 C   0  0  0  0  0  0  0  0  0  0  0  0
  1  2  1  0  0  0  0
  2  3  1  0  0  0  0
  3 12  1  0  0  0  0
  3  4  2  0  0  0  0
  4  5  1  0  0  0  0
  5  6  2  0  0  0  0
  6  7  1  0  0  0  0
  7 12  1  0  0  0  0
  7  8  2  0  0  0  0
  8  9  1  0  0  0  0
  9 10  2  0  0  0  0
 10 11  1  0  0  0  0
 11 12  2  0  0  0  0
M  END
$$$$

 OpenBabel10082008492D

 15 14  0  0  0  0  0  0  0  0999 V2000
    3.2321    1.5981    0.0000 C   0  0  0  0  0  0  0  0  0  0  0  0
    3.2321    2.5981    0.0000 C   0  0  0  0  0  0  0  0  0  0  0  0
    2.3660    3.0981    0.0000 C   0  0  0  0  0  0  0  0  0  0  0  0
    1.5000    2.5981    0.0000 C   0  0  0  0  0  0  0  0  0  0  0  0
    1.0000    3.4641    0.0000 C   0  0  0  0  0  0  0  0  0  0  0  0
    0.6340    2.0981    0.0000 C   0  0  0  0  0  0  0  0  0  0  0  0
   -0.2321    2.5981    0.0000 O   0  0  0  0  0  0  0  0  0  0  0  0
   -1.0981    2.0981    0.0000 C   0  0  0  0  0  0  0  0  0  0  0  0
   -1.9641    2.5981    0.0000 N   0  0  0  0  0  0  0  0  0  0  0  0
   -1.0981    1.0981    0.0000 O   0  0  0  0  0  0  0  0  0  0  0  0
    2.0000    1.7321    0.0000 C   0  0  0  0  0  0  0  0  0  0  0  0
    1.5000    0.8660    0.0000 O   0  0  0  0  0  0  0  0  0  0  0  0
    0.5000    0.8660    0.0000 C   0  0  0  0  0  0  0  0  0  0  0  0
    0.0000    1.7321    0.0000 N   0  0  0  0  0  0  0  0  0  0  0  0
    0.0000    0.0000    0.0000 O   0  0  0  0  0  0  0  0  0  0  0  0
  1  2  1  0  0  0  0
  2  3  1  0  0  0  0
  3  4  1  0  0  0  0
  4  5  1  0  0  0  0
  4  6  1  0  0  0  0
  4 11  1  0  0  0  0
  6  7  1  0  0  0  0
  7  8  1  0  0  0  0
  8  9  1  0  0  0  0
  8 10  2  0  0  0  0
 11 12  1  0  0  0  0
 12 13  1  0  0  0  0
 13 14  1  0  0  0  0
 13 15  2  0  0  0  0
M  END
$$$$

 OpenBabel10082008492D

 17 18  0  0  0  0  0  0  0  0999 V2000
   -1.7321   -2.0000    0.0000 C   0  0  0  0  0  0  0  0  0  0  0  0
   -0.8660   -1.5000    0.0000 C   0  0  0  0  0  0  0  0  0  0  0  0
   -0.8660   -0.5000    0.0000 N   0  0  0  0  0  0  0  0  0  0  0  0
   -1.7321   -0.0000    0.0000 C   0  0  0  0  0  0  0  0  0  0  0  0
   -1.7321    1.0000    0.0000 C   0  0  0  0  0  0  0  0  0  0  0  0
   -2.5981    1.5000    0.0000 C   0  0  0  0  0  0  0  0  0  0  0  0
   -2.5981    2.5000    0.0000 O   0  0  0  0  0  0  0  0  0  0  0  0
   -3.4641    1.0000    0.0000 O   0  0  0  0  0  0  0  0  0  0  0  0
   -0.8660    1.5000    0.0000 C   0  0  0  0  0  0  0  0  0  0  0  0
   -0.8660    2.5000    0.0000 O   0  0  0  0  0  0  0  0  0  0  0  0
   -0.0000    1.0000    0.0000 C   0  0  0  0  0  0  0  0  0  0  0  0
    0.8660    1.5000    0.0000 C   0  0  0  0  0  0  0  0  0  0  0  0
    1.7321    1.0000    0.0000 C   0  0  0  0  0  0  0  0  0  0  0  0
    1.7321    0.0000    0.0000 C   0  0  0  0  0  0  0  0  0  0  0  0
    2.5981   -0.5000    0.0000 C   0  0  0  0  0  0  0  0  0  0  0  0
    0.8660   -0.5000    0.0000 N   0  0  0  0  0  0  0  0  0  0  0  0
    0.0000    0.0000    0.0000 C   0  0  0  0  0  0  0  0  0  0  0  0
  1  2  1  0  0  0  0
  2  3  1  0  0  0  0
  3 17  1  0  0  0  0
  3  4  1  0  0  0  0
  4  5  2  0  0  0  0
  5  6  1  0  0  0  0
  5  9  1  0  0  0  0
  6  7  2  0  0  0  0
  6  8  1  0  0  0  0
  9 10  2  0  0  0  0
  9 11  1  0  0  0  0
 11 17  1  0  0  0  0
 11 12  2  0  0  0  0
 12 13  1  0  0  0  0
 13 14  2  0  0  0  0
 14 15  1  0  0  0  0
 14 16  1  0  0  0  0
 16 17  2  0  0  0  0
M  END
$$$$

 OpenBabel10082008492D

 12 12  0  0  0  0  0  0  0  0999 V2000
    0.8090    1.5878    0.0000 C   0  0  0  0  0  0  0  0  0  0  0  0
    0.8090    0.5878    0.0000 C   0  0  0  0  0  0  0  0  0  0  0  0
    1.6180    0.0000    0.0000 N   0  0  0  0  0  0  0  0  0  0  0  0
    1.3090   -0.9511    0.0000 C   0  0  0  0  0  0  0  0  0  0  0  0
    0.3090   -0.9511    0.0000 C   0  0  0  0  0  0  0  0  0  0  0  0
   -0.2788   -1.7601    0.0000 N   0  3  0  0  0  0  0  0  0  0  0  0
   -1.2733   -1.6555    0.0000 O   0  0  0  0  0  0  0  0  0  0  0  0
    0.1280   -2.6736    0.0000 O   0  5  0  0  0  0  0  0  0  0  0  0
    0.0000   -0.0000    0.0000 N   0  0  0  0  0  0  0  0  0  0  0  0
   -0.9511    0.3090    0.0000 C   0  0  0  0  0  0  0  0  0  0  0  0
   -1.1590    1.2872    0.0000 C   0  0  0  0  0  0  0  0  0  0  0  0
   -0.4158    1.9563    0.0000 O   0  0  0  0  0  0  0  0  0  0  0  0
  1  2  1  0  0  0  0
  2  9  1  0  0  0  0
  2  3  2  0  0  0  0
  3  4  1  0  0  0  0
  4  5  2  0  0  0  0
  5  6  1  0  0  0  0
  5  9  1  0  0  0  0
  6  7  2  0  0  0  0
  6  8  1  0  0  0  0
  9 10  1  0  0  0  0
 10 11  1  0  0  0  0
 11 12  1  0  0  0  0
M  CHG  2   6   1   8  -1
M  END
$$$$

 OpenBabel10082008492D

 12 11  0  0  1  0  0  0  0  0999 V2000
    4.0000    0.0000    0.0000 O   0  0  0  0  0  0  0  0  0  0  0  0
    3.0000    0.0000    0.0000 C   0  0  0  0  0  0  0  0  0  0  0  0
    2.5000    0.8660    0.0000 O   0  0  0  0  0  0  0  0  0  0  0  0
    2.5000   -0.8660    0.0000 C   0  0  2  0  0  0  0  0  0  0  0  0
    2.5000   -1.8660    0.0000 H   0  0  0  0  0  0  0  0  0  0  0  0
    3.3660   -1.3660    0.0000 S   0  0  0  0  0  0  0  0  0  0  0  0
    1.5000   -0.8660    0.0000 C   0  0  2  0  0  0  0  0  0  0  0  0
    0.6340   -1.3660    0.0000 H   0  0  0  0  0  0  0  0  0  0  0  0
    1.5000   -1.8660    0.0000 S   0  0  0  0  0  0  0  0  0  0  0  0
    1.0000    0.0000    0.0000 C   0  0  0  0  0  0  0  0  0  0  0  0
    1.5000    0.8660    0.0000 O   0  0  0  0  0  0  0  0  0  0  0  0
   -0.0000   -0.0000    0.0000 O   0  0  0  0  0  0  0  0  0  0  0  0
  1  2  2  0  0  0  0
  2  3  1  0  0  0  0
  2  4  1  0  0  0  0
  4  5  1  1  0  0  0
  4  6  1  0  0  0  0
  4  7  1  0  0  0  0
  7  8  1  1  0  0  0
  7  9  1  0  0  0  0
  7 10  1  0  0  0  0
 10 11  2  0  0  0  0
 10 12  1  0  0  0  0
M  END
$$$$

 OpenBabel10082008492D

 22 24  0  0  0  0  0  0  0  0999 V2000
    2.0878   -1.6750    0.0000 C   0  0  0  0  0  0  0  0  0  0  0  0
    1.5878   -0.8090    0.0000 S   0  0  0  0  0  0  0  0  0  0  0  0
    0.5878   -0.8090    0.0000 C   0  0  0  0  0  0  0  0  0  0  0  0
   -0.0000   -1.6180    0.0000 N   0  0  0  0  0  0  0  0  0  0  0  0
   -0.9511   -1.3090    0.0000 C   0  0  0  0  0  0  0  0  0  0  0  0
   -1.8171   -1.8090    0.0000 C   0  0  0  0  0  0  0  0  0  0  0  0
   -2.6831   -1.3090    0.0000 C   0  0  0  0  0  0  0  0  0  0  0  0
   -3.5491   -1.8090    0.0000 Cl  0  0  0  0  0  0  0  0  0  0  0  0
   -2.6831   -0.3090    0.0000 C   0  0  0  0  0  0  0  0  0  0  0  0
   -3.5491    0.1910    0.0000 O   0  0  0  0  0  0  0  0  0  0  0  0
   -4.4152   -0.3090    0.0000 C   0  0  0  0  0  0  0  0  0  0  0  0
   -4.4152   -1.3090    0.0000 C   0  0  0  0  0  0  0  0  0  0  0  0
   -5.2812   -1.8090    0.0000 C   0  0  0  0  0  0  0  0  0  0  0  0
   -6.1472   -1.3090    0.0000 C   0  0  0  0  0  0  0  0  0  0  0  0
   -6.1472   -0.3090    0.0000 C   0  0  0  0  0  0  0  0  0  0  0  0
   -7.0132    0.1910    0.0000 Cl  0  0  0  0  0  0  0  0  0  0  0  0
   -5.2812    0.1910    0.0000 C   0  0  0  0  0  0  0  0  0  0  0  0
   -5.2812    1.1910    0.0000 Cl  0  0  0  0  0  0  0  0  0  0  0  0
   -1.8171    0.1910    0.0000 C   0  0  0  0  0  0  0  0  0  0  0  0
   -0.9511   -0.3090    0.0000 C   0  0  0  0  0  0  0  0  0  0  0  0
   -0.0000   -0.0000    0.0000 N   0  0  0  0  0  0  0  0  0  0  0  0
    0.3090    0.9511    0.0000 H   0  0  0  0  0  0  0  0  0  0  0  0
  1  2  1  0  0  0  0
  2  3  1  0  0  0  0
  3 21  1  0  0  0  0
  3  4  2  0  0  0  0
  4  5  1  0  0  0  0
  5 20  1  0  0  0  0
  5  6  2  0  0  0  0
  6  7  1  0  0  0  0
  7  8  1  0  0  0  0
  7  9  2  0  0  0  0
  9 10  1  0  0  0  0
  9 19  1  0  0  0  0
 10 11  1  0  0  0  0
 11 17  1  0  0  0  0
 11 12  2  0  0  0  0
 12 13  1  0  0  0  0
 13 14  2  0  0  0  0
 14 15  1  0  0  0  0
 15 16  1  0  0  0  0
 15 17  2  0  0  0  0
 17 18  1  0  0  0  0
 19 20  2  0  0  0  0
 20 21  1  0  0  0  0
 21 22  1  0  0  0  0
M  END
$$$$

 OpenBabel10082008492D

 17 18  0  0  0  0  0  0  0  0999 V2000
    0.8660    2.5000    0.0000 C   0  0  0  0  0  0  0  0  0  0  0  0
    0.8660    1.5000    0.0000 C   0  0  0  0  0  0  0  0  0  0  0  0
    1.7321    1.0000    0.0000 C   0  0  0  0  0  0  0  0  0  0  0  0
    2.5981    1.5000    0.0000 N   0  0  0  0  0  0  0  0  0  0  0  0
    3.4641    1.0000    0.0000 C   0  0  0  0  0  0  0  0  0  0  0  0
    4.3301    1.5000    0.0000 N   0  0  0  0  0  0  0  0  0  0  0  0
    3.4641   -0.0000    0.0000 N   0  0  0  0  0  0  0  0  0  0  0  0
    2.5981   -0.5000    0.0000 C   0  0  0  0  0  0  0  0  0  0  0  0
    2.5981   -1.5000    0.0000 N   0  0  0  0  0  0  0  0  0  0  0  0
    1.7321   -0.0000    0.0000 C   0  0  0  0  0  0  0  0  0  0  0  0
    0.8660   -0.5000    0.0000 C   0  0  0  0  0  0  0  0  0  0  0  0
    0.8660   -1.5000    0.0000 C   0  0  0  0  0  0  0  0  0  0  0  0
    0.0000   -2.0000    0.0000 C   0  0  0  0  0  0  0  0  0  0  0  0
   -0.8660   -1.5000    0.0000 C   0  0  0  0  0  0  0  0  0  0  0  0
   -1.7321   -2.0000    0.0000 Cl  0  0  0  0  0  0  0  0  0  0  0  0
   -0.8660   -0.5000    0.0000 C   0  0  0  0  0  0  0  0  0  0  0  0
    0.0000   -0.0000    0.0000 C   0  0  0  0  0  0  0  0  0  0  0  0
  1  2  1  0  0  0  0
  2  3  1  0  0  0  0
  3 10  1  0  0  0  0
  3  4  2  0  0  0  0
  4  5  1  0  0  0  0
  5  6  1  0  0  0  0
  5  7  2  0  0  0  0
  7  8  1  0  0  0  0
  8  9  1  0  0  0  0
  8 10  2  0  0  0  0
 10 11  1  0  0  0  0
 11 17  1  0  0  0  0
 11 12  2  0  0  0  0
 12 13  1  0  0  0  0
 13 14  2  0  0  0  0
 14 15  1  0  0  0  0
 14 16  1  0  0  0  0
 16 17  2  0  0  0  0
M  END
$$$$

 OpenBabel10082008492D

 13 13  0  0  1  0  0  0  0  0999 V2000
    2.0908    0.7247    0.0000 N   0  0  0  0  0  0  0  0  0  0  0  0
    1.1248    0.4659    0.0000 C   0  0  0  0  0  0  0  0  0  0  0  0
    0.8660   -0.5000    0.0000 C   0  0  1  0  0  0  0  0  0  0  0  0
    1.6594   -1.1088    0.0000 H   0  0  0  0  0  0  0  0  0  0  0  0
    0.8660   -1.5000    0.0000 C   0  0  0  0  0  0  0  0  0  0  0  0
   -0.0000   -2.0000    0.0000 C   0  0  0  0  0  0  0  0  0  0  0  0
   -0.8660   -1.5000    0.0000 C   0  0  2  0  0  0  0  0  0  0  0  0
   -1.8660   -1.5000    0.0000 H   0  0  0  0  0  0  0  0  0  0  0  0
   -1.3660   -2.3660    0.0000 C   0  0  0  0  0  0  0  0  0  0  0  0
   -2.3660   -2.3660    0.0000 O   0  0  0  0  0  0  0  0  0  0  0  0
   -0.8660   -3.2321    0.0000 O   0  0  0  0  0  0  0  0  0  0  0  0
   -0.8660   -0.5000    0.0000 C   0  0  0  0  0  0  0  0  0  0  0  0
    0.0000   -0.0000    0.0000 C   0  0  0  0  0  0  0  0  0  0  0  0
  1  2  1  0  0  0  0
  2  3  1  0  0  0  0
  3  4  1  6  0  0  0
  3 13  1  0  0  0  0
  3  5  1  0  0  0  0
  5  6  1  0  0  0  0
  6  7  1  0  0  0  0
  7  8  1  1  0  0  0
  7  9  1  0  0  0  0
  7 12  1  0  0  0  0
  9 10  2  0  0  0  0
  9 11  1  0  0  0  0
 12 13  1  0  0  0  0
M  END
$$$$

 OpenBabel10082008492D

 18 17  0  0  1  0  0  0  0  0999 V2000
    5.3301   -0.2321    0.0000 C   0  0  0  0  0  0  0  0  0  0  0  0
    5.8301    0.6340    0.0000 C   0  0  0  0  0  0  0  0  0  0  0  0
    5.3301    1.5000    0.0000 C   0  0  0  0  0  0  0  0  0  0  0  0
    4.3301    1.5000    0.0000 C   0  0  3  0  0  0  0  0  0  0  0  0
    4.3301    2.5000    0.0000 C   0  0  0  0  0  0  0  0  0  0  0  0
    3.3301    1.5000    0.0000 C   0  0  0  0  0  0  0  0  0  0  0  0
    2.8301    2.3660    0.0000 O   0  0  0  0  0  0  0  0  0  0  0  0
    3.3301    3.2321    0.0000 C   0  0  0  0  0  0  0  0  0  0  0  0
    2.8301    4.0981    0.0000 N   0  0  0  0  0  0  0  0  0  0  0  0
    4.3301    3.2321    0.0000 O   0  0  0  0  0  0  0  0  0  0  0  0
    4.3301    0.5000    0.0000 C   0  0  0  0  0  0  0  0  0  0  0  0
    3.4641   -0.0000    0.0000 O   0  0  0  0  0  0  0  0  0  0  0  0
    2.5981    0.5000    0.0000 C   0  0  0  0  0  0  0  0  0  0  0  0
    2.5981    1.5000    0.0000 O   0  0  0  0  0  0  0  0  0  0  0  0
    1.7321   -0.0000    0.0000 N   0  0  0  0  0  0  0  0  0  0  0  0
    0.8660    0.5000    0.0000 C   0  0  0  0  0  0  0  0  0  0  0  0
    0.8660    1.5000    0.0000 C   0  0  0  0  0  0  0  0  0  0  0  0
    0.0000    0.0000    0.0000 C   0  0  0  0  0  0  0  0  0  0  0  0
  1  2  1  0  0  0  0
  2  3  1  0  0  0  0
  3  4  1  0  0  0  0
  4  5  1  0  0  0  0
  4  6  1  0  0  0  0
  4 11  1  0  0  0  0
  6  7  1  0  0  0  0
  7  8  1  0  0  0  0
  8  9  1  0  0  0  0
  8 10  2  0  0  0  0
 11 12  1  0  0  0  0
 12 13  1  0  0  0  0
 13 14  2  0  0  0  0
 13 15  1  0  0  0  0
 15 16  1  0  0  0  0
 16 17  1  0  0  0  0
 16 18  1  0  0  0  0
M  END
$$$$

 OpenBabel10082008492D

 20 22  0  0  0  0  0  0  0  0999 V2000
   -3.4641   -3.0000    0.0000 C   0  0  0  0  0  0  0  0  0  0  0  0
   -2.5981   -3.5000    0.0000 N   0  0  0  0  0  0  0  0  0  0  0  0
   -2.5981   -4.5000    0.0000 C   0  0  0  0  0  0  0  0  0  0  0  0
   -1.7321   -3.0000    0.0000 C   0  0  0  0  0  0  0  0  0  0  0  0
   -1.7321   -2.0000    0.0000 C   0  0  0  0  0  0  0  0  0  0  0  0
   -0.8660   -1.5000    0.0000 C   0  0  0  0  0  0  0  0  0  0  0  0
   -0.8660   -0.5000    0.0000 N   0  0  0  0  0  0  0  0  0  0  0  0
   -1.7321   -0.0000    0.0000 C   0  0  0  0  0  0  0  0  0  0  0  0
   -2.5981   -0.5000    0.0000 C   0  0  0  0  0  0  0  0  0  0  0  0
   -3.4641   -0.0000    0.0000 C   0  0  0  0  0  0  0  0  0  0  0  0
   -3.4641    1.0000    0.0000 C   0  0  0  0  0  0  0  0  0  0  0  0
   -2.5981    1.5000    0.0000 C   0  0  0  0  0  0  0  0  0  0  0  0
   -1.7321    1.0000    0.0000 C   0  0  0  0  0  0  0  0  0  0  0  0
   -0.8660    1.5000    0.0000 S   0  0  0  0  0  0  0  0  0  0  0  0
   -0.0000    1.0000    0.0000 C   0  0  0  0  0  0  0  0  0  0  0  0
    0.8660    1.5000    0.0000 C   0  0  0  0  0  0  0  0  0  0  0  0
    1.7321    1.0000    0.0000 C   0  0  0  0  0  0  0  0  0  0  0  0
    1.7321    0.0000    0.0000 C   0  0  0  0  0  0  0  0  0  0  0  0
    0.8660   -0.5000    0.0000 C   0  0  0  0  0  0  0  0  0  0  0  0
    0.0000   -0.0000    0.0000 C   0  0  0  0  0  0  0  0  0  0  0  0
  1  2  1  0  0  0  0
  2  3  1  0  0  0  0
  2  4  1  0  0  0  0
  4  5  1  0  0  0  0
  5  6  1  0  0  0  0
  6  7  1  0  0  0  0
  7 20  1  0  0  0  0
  7  8  1  0  0  0  0
  8 13  1  0  0  0  0
  8  9  2  0  0  0  0
  9 10  1  0  0  0  0
 10 11  2  0  0  0  0
 11 12  1  0  0  0  0
 12 13  2  0  0  0  0
 13 14  1  0  0  0  0
 14 15  1  0  0  0  0
 15 20  1  0  0  0  0
 15 16  2  0  0  0  0
 16 17  1  0  0  0  0
 17 18  2  0  0  0  0
 18 19  1  0  0  0  0
 19 20  2  0  0  0  0
M  END
$$$$

 OpenBabel10082008492D

 25 26  0  0  1  0  0  0  0  0999 V2000
    4.1698   -1.4444    0.0000 C   0  0  0  0  0  0  0  0  0  0  0  0
    3.3358   -0.9630    0.0000 C   0  0  0  0  0  0  0  0  0  0  0  0
    2.5019   -1.4444    0.0000 O   0  0  0  0  0  0  0  0  0  0  0  0
    1.6679   -0.9630    0.0000 C   0  0  0  0  0  0  0  0  0  0  0  0
    0.8340   -1.4444    0.0000 O   0  0  0  0  0  0  0  0  0  0  0  0
    1.6679    0.9630    0.0000 C   0  0  0  0  0  0  0  0  0  0  0  0
    2.5019    1.4444    0.0000 C   0  0  0  0  0  0  0  0  0  0  0  0
    3.3358    0.9630    0.0000 C   0  0  0  0  0  0  0  0  0  0  0  0
    2.5019    2.4074    0.0000 N   0  0  0  0  0  0  0  0  0  0  0  0
    1.6679    2.8889    0.0000 C   0  0  0  0  0  0  0  0  0  0  0  0
    1.6679    3.8519    0.0000 C   0  0  0  0  0  0  0  0  0  0  0  0
    0.8340    2.4074    0.0000 C   0  0  0  0  0  0  0  0  0  0  0  0
    0.0000    2.8889    0.0000 C   0  0  0  0  0  0  0  0  0  0  0  0
   -0.8340    2.4074    0.0000 O   0  0  0  0  0  0  0  0  0  0  0  0
    0.0000    3.8519    0.0000 O   0  0  0  0  0  0  0  0  0  0  0  0
   -0.8340    4.3333    0.0000 C   0  0  0  0  0  0  0  0  0  0  0  0
    0.8340    1.4444    0.0000 C   0  0  3  0  0  0  0  0  0  0  0  0
    0.0000    0.9630    0.0000 C   0  0  0  0  0  0  0  0  0  0  0  0
   -0.8340    1.4444    0.0000 C   0  0  0  0  0  0  0  0  0  0  0  0
   -1.6679    0.9630    0.0000 C   0  0  0  0  0  0  0  0  0  0  0  0
   -1.6679    0.0000    0.0000 C   0  0  0  0  0  0  0  0  0  0  0  0
   -0.8340   -0.4815    0.0000 C   0  0  0  0  0  0  0  0  0  0  0  0
   -0.8340   -1.4444    0.0000 Cl  0  0  0  0  0  0  0  0  0  0  0  0
   -0.0000   -0.0000    0.0000 C   0  0  0  0  0  0  0  0  0  0  0  0
    0.8340   -0.4815    0.0000 Cl  0  0  0  0  0  0  0  0  0  0  0  0
  1  2  1  0  0  0  0
  2  3  1  0  0  0  0
  3  4  1  0  0  0  0
  4  5  2  0  0  0  0
  4  6  1  0  0  0  0
  6 17  1  0  0  0  0
  6  7  2  0  0  0  0
  7  8  1  0  0  0  0
  7  9  1  0  0  0  0
  9 10  1  0  0  0  0
 10 11  1  0  0  0  0
 10 12  2  0  0  0  0
 12 13  1  0  0  0  0
 12 17  1  0  0  0  0
 13 14  2  0  0  0  0
 13 15  1  0  0  0  0
 15 16  1  0  0  0  0
 17 18  1  0  0  0  0
 18 24  1  0  0  0  0
 18 19  2  0  0  0  0
 19 20  1  0  0  0  0
 20 21  2  0  0  0  0
 21 22  1  0  0  0  0
 22 23  1  0  0  0  0
 22 24  2  0  0  0  0
 24 25  1  0  0  0  0
M  END
$$$$

 OpenBabel10082008492D

 22 25  0  0  1  0  0  0  0  0999 V2000
    1.7321   -0.0000    0.0000 C   0  0  0  0  0  0  0  0  0  0  0  0
    0.8660   -0.5000    0.0000 N   0  0  0  0  0  0  0  0  0  0  0  0
    0.8660   -1.5000    0.0000 C   0  0  0  0  0  0  0  0  0  0  0  0
    0.0000   -2.0000    0.0000 C   0  0  0  0  0  0  0  0  0  0  0  0
   -0.8660   -1.5000    0.0000 C   0  0  0  0  0  0  0  0  0  0  0  0
   -0.8660   -0.5000    0.0000 C   0  0  3  0  0  0  0  0  0  0  0  0
   -1.7321   -0.0000    0.0000 C   0  0  0  0  0  0  0  0  0  0  0  0
   -2.5981   -0.5000    0.0000 C   0  0  0  0  0  0  0  0  0  0  0  0
   -2.5981   -1.5000    0.0000 C   0  0  0  0  0  0  0  0  0  0  0  0
   -1.7321   -2.0000    0.0000 C   0  0  0  0  0  0  0  0  0  0  0  0
   -1.7321   -3.0000    0.0000 C   0  0  0  0  0  0  0  0  0  0  0  0
   -2.5981   -3.5000    0.0000 C   0  0  0  0  0  0  0  0  0  0  0  0
   -3.4641   -3.0000    0.0000 C   0  0  0  0  0  0  0  0  0  0  0  0
   -3.4641   -2.0000    0.0000 C   0  0  0  0  0  0  0  0  0  0  0  0
   -4.3301   -1.5000    0.0000 S   0  0  0  0  0  0  0  0  0  0  0  0
   -4.3301   -0.5000    0.0000 C   0  0  0  0  0  0  0  0  0  0  0  0
   -5.1962   -0.0000    0.0000 C   0  0  0  0  0  0  0  0  0  0  0  0
   -5.1962    1.0000    0.0000 C   0  0  0  0  0  0  0  0  0  0  0  0
   -4.3301    1.5000    0.0000 C   0  0  0  0  0  0  0  0  0  0  0  0
   -3.4641    1.0000    0.0000 C   0  0  0  0  0  0  0  0  0  0  0  0
   -3.4641   -0.0000    0.0000 C   0  0  0  0  0  0  0  0  0  0  0  0
    0.0000   -0.0000    0.0000 C   0  0  0  0  0  0  0  0  0  0  0  0
  1  2  1  0  0  0  0
  2 22  1  0  0  0  0
  2  3  1  0  0  0  0
  3  4  1  0  0  0  0
  4  5  1  0  0  0  0
  5  6  1  0  0  0  0
  6  7  1  0  0  0  0
  6 22  1  0  0  0  0
  7  8  1  0  0  0  0
  8 21  1  0  0  0  0
  8  9  1  0  0  0  0
  9 14  1  0  0  0  0
  9 10  2  0  0  0  0
 10 11  1  0  0  0  0
 11 12  2  0  0  0  0
 12 13  1  0  0  0  0
 13 14  2  0  0  0  0
 14 15  1  0  0  0  0
 15 16  1  0  0  0  0
 16 21  1  0  0  0  0
 16 17  2  0  0  0  0
 17 18  1  0  0  0  0
 18 19  2  0  0  0  0
 19 20  1  0  0  0  0
 20 21  2  0  0  0  0
M  END
$$$$

 OpenBabel10082008492D

 31 33  0  0  1  0  0  0  0  0999 V2000
   -1.9875    0.1151    0.0000 C   0  0  0  0  0  0  0  0  0  0  0  0
   -1.7796    1.0933    0.0000 C   0  0  0  0  0  0  0  0  0  0  0  0
   -2.4487    1.8364    0.0000 N   0  0  0  0  0  0  0  0  0  0  0  0
   -1.9487    2.7024    0.0000 C   0  0  0  0  0  0  0  0  0  0  0  0
   -2.3554    3.6160    0.0000 N   0  0  0  0  0  0  0  0  0  0  0  0
   -3.3500    3.7205    0.0000 C   0  0  0  0  0  0  0  0  0  0  0  0
   -3.7567    4.6341    0.0000 O   0  0  0  0  0  0  0  0  0  0  0  0
   -3.9377    2.9115    0.0000 N   0  0  0  0  0  0  0  0  0  0  0  0
   -3.6287    1.9604    0.0000 C   0  0  0  0  0  0  0  0  0  0  0  0
   -4.4377    1.3726    0.0000 C   0  0  0  0  0  0  0  0  0  0  0  0
   -5.2468    1.9604    0.0000 C   0  0  0  0  0  0  0  0  0  0  0  0
   -4.9377    2.9115    0.0000 C   0  0  1  0  0  0  0  0  0  0  0  0
   -5.0423    3.9060    0.0000 H   0  0  0  0  0  0  0  0  0  0  0  0
   -5.8513    3.3182    0.0000 C   0  0  0  0  0  0  0  0  0  0  0  0
   -5.9558    4.3127    0.0000 N   0  0  0  0  0  0  0  0  0  0  0  0
   -6.6603    2.7304    0.0000 O   0  0  0  0  0  0  0  0  0  0  0  0
   -0.9706    2.4945    0.0000 S   0  0  0  0  0  0  0  0  0  0  0  0
   -0.8660    1.5000    0.0000 C   0  0  0  0  0  0  0  0  0  0  0  0
    0.0000    1.0000    0.0000 C   0  0  0  0  0  0  0  0  0  0  0  0
    0.8660    1.5000    0.0000 C   0  0  0  0  0  0  0  0  0  0  0  0
    1.7321    1.0000    0.0000 C   0  0  0  0  0  0  0  0  0  0  0  0
    1.7321   -0.0000    0.0000 N   0  0  0  0  0  0  0  0  0  0  0  0
    0.8660   -0.5000    0.0000 C   0  0  0  0  0  0  0  0  0  0  0  0
    0.8660   -1.5000    0.0000 C   0  0  0  0  0  0  0  0  0  0  0  0
    1.3660   -2.3660    0.0000 C   0  0  0  0  0  0  0  0  0  0  0  0
    1.8660   -1.5000    0.0000 C   0  0  0  0  0  0  0  0  0  0  0  0
    0.0000   -2.0000    0.0000 C   0  0  0  0  0  0  0  0  0  0  0  0
   -0.5000   -2.8660    0.0000 F   0  0  0  0  0  0  0  0  0  0  0  0
    0.5000   -2.8660    0.0000 F   0  0  0  0  0  0  0  0  0  0  0  0
   -0.8660   -1.5000    0.0000 F   0  0  0  0  0  0  0  0  0  0  0  0
    0.0000    0.0000    0.0000 C   0  0  0  0  0  0  0  0  0  0  0  0
  1  2  1  0  0  0  0
  2 18  2  0  0  0  0
  2  3  1  0  0  0  0
  3  4  2  0  0  0  0
  4  5  1  0  0  0  0
  4 17  1  0  0  0  0
  5  6  1  0  0  0  0
  6  7  2  0  0  0  0
  6  8  1  0  0  0  0
  8 12  1  0  0  0  0
  8  9  1  0  0  0  0
  9 10  1  0  0  0  0
 10 11  1  0  0  0  0
 11 12  1  0  0  0  0
 12 13  1  6  0  0  0
 12 14  1  0  0  0  0
 14 15  1  0  0  0  0
 14 16  2  0  0  0  0
 17 18  1  0  0  0  0
 18 19  1  0  0  0  0
 19 31  1  0  0  0  0
 19 20  2  0  0  0  0
 20 21  1  0  0  0  0
 21 22  2  0  0  0  0
 22 23  1  0  0  0  0
 23 24  1  0  0  0  0
 23 31  2  0  0  0  0
 24 25  1  0  0  0  0
 24 26  1  0  0  0  0
 24 27  1  0  0  0  0
 27 28  1  0  0  0  0
 27 29  1  0  0  0  0
 27 30  1  0  0  0  0
M  END
$$$$

 OpenBabel10082008492D

 22 23  0  0  1  0  0  0  0  0999 V2000
   -0.4525    4.9593    0.0000 C   0  0  0  0  0  0  0  0  0  0  0  0
    0.0475    4.0933    0.0000 C   0  0  0  0  0  0  0  0  0  0  0  0
   -0.9525    4.0933    0.0000 C   0  0  0  0  0  0  0  0  0  0  0  0
    0.9135    4.5933    0.0000 C   0  0  0  0  0  0  0  0  0  0  0  0
    0.0475    3.0933    0.0000 N   0  0  0  0  0  0  0  0  0  0  0  0
   -0.8185    2.5933    0.0000 C   0  0  0  0  0  0  0  0  0  0  0  0
   -0.8185    1.5933    0.0000 C   0  0  2  0  0  0  0  0  0  0  0  0
   -1.8185    1.5933    0.0000 H   0  0  0  0  0  0  0  0  0  0  0  0
   -1.3185    0.7272    0.0000 O   0  0  0  0  0  0  0  0  0  0  0  0
    0.0475    1.0933    0.0000 C   0  0  0  0  0  0  0  0  0  0  0  0
    0.9135    1.5933    0.0000 O   0  0  0  0  0  0  0  0  0  0  0  0
    1.7796    1.0933    0.0000 C   0  0  0  0  0  0  0  0  0  0  0  0
    2.6456    1.5933    0.0000 C   0  0  0  0  0  0  0  0  0  0  0  0
    3.5116    1.0933    0.0000 C   0  0  0  0  0  0  0  0  0  0  0  0
    3.5116    0.0933    0.0000 C   0  0  0  0  0  0  0  0  0  0  0  0
    2.6456   -0.4067    0.0000 C   0  0  0  0  0  0  0  0  0  0  0  0
    1.7796    0.0933    0.0000 C   0  0  0  0  0  0  0  0  0  0  0  0
    0.9135   -0.4067    0.0000 C   0  0  0  0  0  0  0  0  0  0  0  0
    0.8090   -1.4013    0.0000 C   0  0  0  0  0  0  0  0  0  0  0  0
   -0.1691   -1.6092    0.0000 C   0  0  0  0  0  0  0  0  0  0  0  0
   -0.6691   -0.7431    0.0000 C   0  0  0  0  0  0  0  0  0  0  0  0
   -0.0000   -0.0000    0.0000 C   0  0  0  0  0  0  0  0  0  0  0  0
  1  2  1  0  0  0  0
  2  3  1  0  0  0  0
  2  4  1  0  0  0  0
  2  5  1  0  0  0  0
  5  6  1  0  0  0  0
  6  7  1  0  0  0  0
  7  8  1  6  0  0  0
  7  9  1  0  0  0  0
  7 10  1  0  0  0  0
 10 11  1  0  0  0  0
 11 12  1  0  0  0  0
 12 17  1  0  0  0  0
 12 13  2  0  0  0  0
 13 14  1  0  0  0  0
 14 15  2  0  0  0  0
 15 16  1  0  0  0  0
 16 17  2  0  0  0  0
 17 18  1  0  0  0  0
 18 22  1  0  0  0  0
 18 19  1  0  0  0  0
 19 20  1  0  0  0  0
 20 21  1  0  0  0  0
 21 22  1  0  0  0  0
M  END
$$$$

 OpenBabel10082008492D

 42 47  0  0  0  0  0  0  0  0999 V2000
    0.2257    2.6361    0.0000 O   0  0  0  0  0  0  0  0  0  0  0  0
   -0.1810    1.7226    0.0000 C   0  0  0  0  0  0  0  0  0  0  0  0
   -1.1756    1.6180    0.0000 N   0  0  0  0  0  0  0  0  0  0  0  0
   -1.5823    0.7045    0.0000 C   0  0  0  0  0  0  0  0  0  0  0  0
   -1.0823   -0.1615    0.0000 N   0  0  0  0  0  0  0  0  0  0  0  0
   -1.7514   -0.9047    0.0000 C   0  0  0  0  0  0  0  0  0  0  0  0
   -1.5435   -1.8828    0.0000 C   0  0  0  0  0  0  0  0  0  0  0  0
   -0.6300   -2.2896    0.0000 C   0  0  0  0  0  0  0  0  0  0  0  0
   -0.7345   -3.2841    0.0000 C   0  0  0  0  0  0  0  0  0  0  0  0
    0.0086   -3.9532    0.0000 Cl  0  0  0  0  0  0  0  0  0  0  0  0
   -1.7127   -3.4920    0.0000 C   0  0  0  0  0  0  0  0  0  0  0  0
   -2.2127   -2.6260    0.0000 S   0  0  0  0  0  0  0  0  0  0  0  0
   -2.6650   -0.4979    0.0000 C   0  0  0  0  0  0  0  0  0  0  0  0
   -3.5310   -0.9979    0.0000 N   0  0  0  0  0  0  0  0  0  0  0  0
   -3.5310   -1.9979    0.0000 C   0  0  0  0  0  0  0  0  0  0  0  0
   -4.3970   -2.4979    0.0000 C   0  0  0  0  0  0  0  0  0  0  0  0
   -5.2631   -1.9979    0.0000 N   0  0  0  0  0  0  0  0  0  0  0  0
   -6.1291   -2.4979    0.0000 C   0  0  0  0  0  0  0  0  0  0  0  0
   -6.1291   -3.4979    0.0000 C   0  0  0  0  0  0  0  0  0  0  0  0
   -6.9951   -3.9979    0.0000 C   0  0  0  0  0  0  0  0  0  0  0  0
   -7.8611   -3.4979    0.0000 C   0  0  0  0  0  0  0  0  0  0  0  0
   -7.8611   -2.4979    0.0000 C   0  0  0  0  0  0  0  0  0  0  0  0
   -6.9951   -1.9979    0.0000 C   0  0  0  0  0  0  0  0  0  0  0  0
   -5.2631   -0.9979    0.0000 C   0  0  0  0  0  0  0  0  0  0  0  0
   -4.3970   -0.4979    0.0000 C   0  0  0  0  0  0  0  0  0  0  0  0
   -2.5605    0.4966    0.0000 S   0  0  0  0  0  0  0  0  0  0  0  0
    0.4067    0.9135    0.0000 C   0  0  0  0  0  0  0  0  0  0  0  0
    1.4013    1.0181    0.0000 C   0  0  0  0  0  0  0  0  0  0  0  0
    1.9890    0.2091    0.0000 N   0  0  0  0  0  0  0  0  0  0  0  0
    1.5823   -0.7045    0.0000 C   0  0  0  0  0  0  0  0  0  0  0  0
    2.1701   -1.5135    0.0000 N   0  0  0  0  0  0  0  0  0  0  0  0
    3.1646   -1.4090    0.0000 C   0  0  0  0  0  0  0  0  0  0  0  0
    3.7524   -2.2180    0.0000 C   0  0  0  0  0  0  0  0  0  0  0  0
    3.3457   -3.1315    0.0000 C   0  0  0  0  0  0  0  0  0  0  0  0
    3.9334   -3.9406    0.0000 C   0  0  0  0  0  0  0  0  0  0  0  0
    3.5267   -4.8541    0.0000 O   0  0  0  0  0  0  0  0  0  0  0  0
    4.9280   -3.8360    0.0000 O   0  0  0  0  0  0  0  0  0  0  0  0
    2.3511   -3.2361    0.0000 C   0  0  0  0  0  0  0  0  0  0  0  0
    1.7634   -2.4271    0.0000 C   0  0  0  0  0  0  0  0  0  0  0  0
    0.5878   -0.8090    0.0000 C   0  0  0  0  0  0  0  0  0  0  0  0
    0.1810   -1.7226    0.0000 Cl  0  0  0  0  0  0  0  0  0  0  0  0
    0.0000   -0.0000    0.0000 C   0  0  0  0  0  0  0  0  0  0  0  0
  1  2  2  0  0  0  0
  2  3  1  0  0  0  0
  2 27  1  0  0  0  0
  3  4  1  0  0  0  0
  4 26  1  0  0  0  0
  4  5  2  0  0  0  0
  5  6  1  0  0  0  0
  6  7  1  0  0  0  0
  6 13  2  0  0  0  0
  7 12  1  0  0  0  0
  7  8  2  0  0  0  0
  8  9  1  0  0  0  0
  9 10  1  0  0  0  0
  9 11  2  0  0  0  0
 11 12  1  0  0  0  0
 13 14  1  0  0  0  0
 13 26  1  0  0  0  0
 14 25  1  0  0  0  0
 14 15  1  0  0  0  0
 15 16  1  0  0  0  0
 16 17  1  0  0  0  0
 17 18  1  0  0  0  0
 17 24  1  0  0  0  0
 18 23  1  0  0  0  0
 18 19  1  0  0  0  0
 19 20  1  0  0  0  0
 20 21  1  0  0  0  0
 21 22  1  0  0  0  0
 22 23  1  0  0  0  0
 24 25  1  0  0  0  0
 27 42  1  0  0  0  0
 27 28  2  0  0  0  0
 28 29  1  0  0  0  0
 29 30  2  0  0  0  0
 30 31  1  0  0  0  0
 30 40  1  0  0  0  0
 31 39  1  0  0  0  0
 31 32  1  0  0  0  0
 32 33  1  0  0  0  0
 33 34  1  0  0  0  0
 34 35  1  0  0  0  0
 34 38  1  0  0  0  0
 35 36  2  0  0  0  0
 35 37  1  0  0  0  0
 38 39  1  0  0  0  0
 40 41  1  0  0  0  0
 40 42  2  0  0  0  0
M  END
$$$$

 OpenBabel10082008492D

 49 55  0  0  1  0  0  0  0  0999 V2000
   -1.8447    2.3612    0.0000 C   0  0  0  0  0  0  0  0  0  0  0  0
   -2.2514    1.4476    0.0000 C   0  0  0  0  0  0  0  0  0  0  0  0
   -1.6637    0.6386    0.0000 C   0  0  3  0  0  0  0  0  0  0  0  0
   -2.0704   -0.2749    0.0000 C   0  0  0  0  0  0  0  0  0  0  0  0
   -0.6691    0.7431    0.0000 N   0  0  0  0  0  0  0  0  0  0  0  0
   -0.1691    1.6092    0.0000 N   0  0  0  0  0  0  0  0  0  0  0  0
    0.8090    1.4013    0.0000 C   0  0  0  0  0  0  0  0  0  0  0  0
    0.9135    0.4067    0.0000 N   0  0  0  0  0  0  0  0  0  0  0  0
    1.7796   -0.0933    0.0000 C   0  0  0  0  0  0  0  0  0  0  0  0
    2.6456    0.4067    0.0000 C   0  0  0  0  0  0  0  0  0  0  0  0
    3.5116   -0.0933    0.0000 C   0  0  0  0  0  0  0  0  0  0  0  0
    3.5116   -1.0933    0.0000 C   0  0  0  0  0  0  0  0  0  0  0  0
    4.3776   -1.5933    0.0000 N   0  0  0  0  0  0  0  0  0  0  0  0
    5.2437   -1.0933    0.0000 C   0  0  0  0  0  0  0  0  0  0  0  0
    6.1097   -1.5933    0.0000 C   0  0  0  0  0  0  0  0  0  0  0  0
    6.1097   -2.5933    0.0000 N   0  0  0  0  0  0  0  0  0  0  0  0
    6.9757   -3.0933    0.0000 C   0  0  0  0  0  0  0  0  0  0  0  0
    7.8417   -2.5933    0.0000 C   0  0  0  0  0  0  0  0  0  0  0  0
    8.7078   -3.0933    0.0000 C   0  0  0  0  0  0  0  0  0  0  0  0
    8.7078   -4.0933    0.0000 C   0  0  0  0  0  0  0  0  0  0  0  0
    9.5738   -4.5933    0.0000 O   0  0  0  0  0  0  0  0  0  0  0  0
   10.4398   -4.0933    0.0000 C   0  0  0  0  0  0  0  0  0  0  0  0
   11.3059   -4.5933    0.0000 C   0  0  3  0  0  0  0  0  0  0  0  0
   12.2194   -4.1865    0.0000 C   0  0  0  0  0  0  0  0  0  0  0  0
   12.8885   -4.9297    0.0000 O   0  0  0  0  0  0  0  0  0  0  0  0
   12.3885   -5.7957    0.0000 C   0  0  3  0  0  0  0  0  0  0  0  0
   12.2840   -6.7902    0.0000 C   0  0  0  0  0  0  0  0  0  0  0  0
   11.3705   -7.1970    0.0000 N   0  0  0  0  0  0  0  0  0  0  0  0
   10.5044   -6.6970    0.0000 C   0  0  0  0  0  0  0  0  0  0  0  0
    9.7613   -7.3661    0.0000 N   0  0  0  0  0  0  0  0  0  0  0  0
   10.1680   -8.2796    0.0000 C   0  0  0  0  0  0  0  0  0  0  0  0
   11.1625   -8.1751    0.0000 N   0  0  0  0  0  0  0  0  0  0  0  0
   13.1975   -6.3835    0.0000 C   0  0  0  0  0  0  0  0  0  0  0  0
   14.1111   -5.9767    0.0000 C   0  0  0  0  0  0  0  0  0  0  0  0
   14.9201   -6.5645    0.0000 C   0  0  0  0  0  0  0  0  0  0  0  0
   14.8156   -7.5591    0.0000 C   0  0  0  0  0  0  0  0  0  0  0  0
   15.6246   -8.1468    0.0000 Cl  0  0  0  0  0  0  0  0  0  0  0  0
   13.9020   -7.9658    0.0000 C   0  0  0  0  0  0  0  0  0  0  0  0
   13.0930   -7.3780    0.0000 C   0  0  0  0  0  0  0  0  0  0  0  0
   12.1795   -7.7847    0.0000 Cl  0  0  0  0  0  0  0  0  0  0  0  0
   11.4104   -5.5878    0.0000 O   0  0  0  0  0  0  0  0  0  0  0  0
    7.8417   -4.5933    0.0000 C   0  0  0  0  0  0  0  0  0  0  0  0
    6.9757   -4.0933    0.0000 C   0  0  0  0  0  0  0  0  0  0  0  0
    5.2437   -3.0933    0.0000 C   0  0  0  0  0  0  0  0  0  0  0  0
    4.3776   -2.5933    0.0000 C   0  0  0  0  0  0  0  0  0  0  0  0
    2.6456   -1.5933    0.0000 C   0  0  0  0  0  0  0  0  0  0  0  0
    1.7796   -1.0933    0.0000 C   0  0  0  0  0  0  0  0  0  0  0  0
    0.0000   -0.0000    0.0000 C   0  0  0  0  0  0  0  0  0  0  0  0
   -0.2079   -0.9781    0.0000 O   0  0  0  0  0  0  0  0  0  0  0  0
  1  2  1  0  0  0  0
  2  3  1  0  0  0  0
  3  4  1  0  0  0  0
  3  5  1  0  0  0  0
  5 48  1  0  0  0  0
  5  6  1  0  0  0  0
  6  7  2  0  0  0  0
  7  8  1  0  0  0  0
  8  9  1  0  0  0  0
  8 48  1  0  0  0  0
  9 47  1  0  0  0  0
  9 10  2  0  0  0  0
 10 11  1  0  0  0  0
 11 12  2  0  0  0  0
 12 13  1  0  0  0  0
 12 46  1  0  0  0  0
 13 45  1  0  0  0  0
 13 14  1  0  0  0  0
 14 15  1  0  0  0  0
 15 16  1  0  0  0  0
 16 17  1  0  0  0  0
 16 44  1  0  0  0  0
 17 43  1  0  0  0  0
 17 18  2  0  0  0  0
 18 19  1  0  0  0  0
 19 20  2  0  0  0  0
 20 21  1  0  0  0  0
 20 42  1  0  0  0  0
 21 22  1  0  0  0  0
 22 23  1  0  0  0  0
 23 41  1  0  0  0  0
 23 24  1  0  0  0  0
 24 25  1  0  0  0  0
 25 26  1  0  0  0  0
 26 27  1  0  0  0  0
 26 33  1  0  0  0  0
 26 41  1  0  0  0  0
 27 28  1  0  0  0  0
 28 32  1  0  0  0  0
 28 29  1  0  0  0  0
 29 30  2  0  0  0  0
 30 31  1  0  0  0  0
 31 32  2  0  0  0  0
 33 39  1  0  0  0  0
 33 34  2  0  0  0  0
 34 35  1  0  0  0  0
 35 36  2  0  0  0  0
 36 37  1  0  0  0  0
 36 38  1  0  0  0  0
 38 39  2  0  0  0  0
 39 40  1  0  0  0  0
 42 43  2  0  0  0  0
 44 45  1  0  0  0  0
 46 47  2  0  0  0  0
 48 49  2  0  0  0  0
M  END
$$$$

 OpenBabel10082008492D

 28 29  0  0  1  0  0  0  0  0999 V2000
    2.0281    2.2872    0.0000 C   0  0  0  0  0  0  0  0  0  0  0  0
    1.1910    2.7705    0.0000 C   0  0  0  0  0  0  0  0  0  0  0  0
    0.3538    2.2872    0.0000 C   0  0  2  0  0  0  0  0  0  0  0  0
   -0.1295    3.1243    0.0000 H   0  0  0  0  0  0  0  0  0  0  0  0
   -0.4833    1.8038    0.0000 O   0  0  0  0  0  0  0  0  0  0  0  0
   -1.3205    2.2872    0.0000 C   0  0  0  0  0  0  0  0  0  0  0  0
   -2.1576    1.8038    0.0000 C   0  0  0  0  0  0  0  0  0  0  0  0
   -1.3205    3.2538    0.0000 O   0  0  0  0  0  0  0  0  0  0  0  0
    0.8372    1.4500    0.0000 C   0  0  0  0  0  0  0  0  0  0  0  0
    2.5115    2.4167    0.0000 C   0  0  0  0  0  0  0  0  0  0  0  0
    2.5115    3.3833    0.0000 C   0  0  2  0  0  0  0  0  0  0  0  0
    2.0281    4.2205    0.0000 H   0  0  0  0  0  0  0  0  0  0  0  0
    1.5448    3.3833    0.0000 C   0  0  0  0  0  0  0  0  0  0  0  0
    3.3486    3.8667    0.0000 N   0  0  0  0  0  0  0  0  0  0  0  0
    4.1858    3.3833    0.0000 C   0  0  0  0  0  0  0  0  0  0  0  0
    3.3486    4.8333    0.0000 C   0  0  0  0  0  0  0  0  0  0  0  0
    1.3205    0.6128    0.0000 C   0  0  0  0  0  0  0  0  0  0  0  0
    0.8372   -0.2243    0.0000 C   0  0  0  0  0  0  0  0  0  0  0  0
    1.3205   -1.0615    0.0000 C   0  0  0  0  0  0  0  0  0  0  0  0
    2.2872   -1.0615    0.0000 C   0  0  0  0  0  0  0  0  0  0  0  0
    2.7705   -0.2243    0.0000 C   0  0  0  0  0  0  0  0  0  0  0  0
    2.2872    0.6128    0.0000 C   0  0  0  0  0  0  0  0  0  0  0  0
    0.0000    0.9667    0.0000 C   0  0  0  0  0  0  0  0  0  0  0  0
   -0.8372    1.4500    0.0000 C   0  0  0  0  0  0  0  0  0  0  0  0
   -1.6743    0.9667    0.0000 C   0  0  0  0  0  0  0  0  0  0  0  0
   -1.6743    0.0000    0.0000 C   0  0  0  0  0  0  0  0  0  0  0  0
   -0.8372   -0.4833    0.0000 C   0  0  0  0  0  0  0  0  0  0  0  0
   -0.0000   -0.0000    0.0000 C   0  0  0  0  0  0  0  0  0  0  0  0
  1  2  1  0  0  0  0
  2  3  1  0  0  0  0
  3  4  1  6  0  0  0
  3  5  1  0  0  0  0
  3  9  1  0  0  0  0
  5  6  1  0  0  0  0
  6  7  1  0  0  0  0
  6  8  2  0  0  0  0
  9 10  1  0  0  0  0
  9 17  1  0  0  0  0
  9 23  1  0  0  0  0
 10 11  1  0  0  0  0
 11 12  1  1  0  0  0
 11 13  1  0  0  0  0
 11 14  1  0  0  0  0
 14 15  1  0  0  0  0
 14 16  1  0  0  0  0
 17 22  1  0  0  0  0
 17 18  2  0  0  0  0
 18 19  1  0  0  0  0
 19 20  2  0  0  0  0
 20 21  1  0  0  0  0
 21 22  2  0  0  0  0
 23 28  1  0  0  0  0
 23 24  2  0  0  0  0
 24 25  1  0  0  0  0
 25 26  2  0  0  0  0
 26 27  1  0  0  0  0
 27 28  2  0  0  0  0
M  END
$$$$

 OpenBabel10082008492D

 21 24  0  0  1  0  0  0  0  0999 V2000
   -2.0511    3.2402    0.0000 C   0  0  0  0  0  0  0  0  0  0  0  0
   -1.2985    3.2402    0.0000 N   0  0  0  0  0  0  0  0  0  0  0  0
   -0.9220    2.5884    0.0000 C   0  0  0  0  0  0  0  0  0  0  0  0
   -1.2983    1.9366    0.0000 C   0  0  0  0  0  0  0  0  0  0  0  0
   -0.9219    1.2848    0.0000 C   0  0  0  0  0  0  0  0  0  0  0  0
   -0.9218    0.5321    0.0000 C   0  0  3  0  0  0  0  0  0  0  0  0
   -0.5454   -0.1197    0.0000 C   0  0  0  0  0  0  0  0  0  0  0  0
   -0.5453   -0.9446    0.0000 C   0  0  0  0  0  0  0  0  0  0  0  0
   -0.9216   -1.5965    0.0000 C   0  0  3  0  0  0  0  0  0  0  0  0
   -1.8432   -1.0644    0.0000 C   0  0  0  0  0  0  0  0  0  0  0  0
   -2.7647   -1.5966    0.0000 C   0  0  0  0  0  0  0  0  0  0  0  0
   -3.6864   -1.0646    0.0000 C   0  0  0  0  0  0  0  0  0  0  0  0
   -3.6865   -0.0004    0.0000 C   0  0  0  0  0  0  0  0  0  0  0  0
   -2.7649    0.5318    0.0000 C   0  0  0  0  0  0  0  0  0  0  0  0
   -1.8433   -0.0002    0.0000 C   0  0  0  0  0  0  0  0  0  0  0  0
    0.0001   -1.0642    0.0000 C   0  0  0  0  0  0  0  0  0  0  0  0
    0.9218   -1.5961    0.0000 C   0  0  0  0  0  0  0  0  0  0  0  0
    1.8433   -1.0640    0.0000 C   0  0  0  0  0  0  0  0  0  0  0  0
    1.8432    0.0002    0.0000 C   0  0  0  0  0  0  0  0  0  0  0  0
    0.9215    0.5322    0.0000 C   0  0  0  0  0  0  0  0  0  0  0  0
    0.0000    0.0000    0.0000 C   0  0  0  0  0  0  0  0  0  0  0  0
  1  2  1  0  0  0  0
  2  3  1  0  0  0  0
  3  4  1  0  0  0  0
  4  5  1  0  0  0  0
  5  6  1  0  0  0  0
  6 15  1  0  0  0  0
  6 21  1  0  0  0  0
  6  7  1  0  0  0  0
  7  8  1  0  0  0  0
  8  9  1  0  0  0  0
  9 10  1  0  0  0  0
  9 16  1  0  0  0  0
 10 15  1  0  0  0  0
 10 11  2  0  0  0  0
 11 12  1  0  0  0  0
 12 13  2  0  0  0  0
 13 14  1  0  0  0  0
 14 15  2  0  0  0  0
 16 21  1  0  0  0  0
 16 17  2  0  0  0  0
 17 18  1  0  0  0  0
 18 19  2  0  0  0  0
 19 20  1  0  0  0  0
 20 21  2  0  0  0  0
M  END
$$$$

 OpenBabel10082008492D

 16 17  0  0  1  0  0  0  0  0999 V2000
    1.0624    0.4400    0.0000 C   0  0  0  0  0  0  0  0  0  0  0  0
    0.8179   -0.4722    0.0000 C   0  0  1  0  0  0  0  0  0  0  0  0
    1.5672   -1.0472    0.0000 H   0  0  0  0  0  0  0  0  0  0  0  0
    0.8179   -1.4167    0.0000 C   0  0  2  0  0  0  0  0  0  0  0  0
    1.2901   -2.2346    0.0000 H   0  0  0  0  0  0  0  0  0  0  0  0
    2.7068   -1.4167    0.0000 C   0  0  0  0  0  0  0  0  0  0  0  0
    3.1790   -0.5988    0.0000 C   0  0  0  0  0  0  0  0  0  0  0  0
    4.1235   -0.5988    0.0000 C   0  0  0  0  0  0  0  0  0  0  0  0
    4.5957   -1.4167    0.0000 C   0  0  0  0  0  0  0  0  0  0  0  0
    4.1235   -2.2346    0.0000 C   0  0  0  0  0  0  0  0  0  0  0  0
    3.1790   -2.2346    0.0000 C   0  0  0  0  0  0  0  0  0  0  0  0
   -0.0000   -1.8889    0.0000 O   0  0  0  0  0  0  0  0  0  0  0  0
   -0.8179   -1.4167    0.0000 C   0  0  0  0  0  0  0  0  0  0  0  0
   -0.8179   -0.4722    0.0000 C   0  0  0  0  0  0  0  0  0  0  0  0
    0.0000   -0.0000    0.0000 N   0  0  0  0  0  0  0  0  0  0  0  0
   -0.0000    0.9444    0.0000 C   0  0  0  0  0  0  0  0  0  0  0  0
  1  2  1  0  0  0  0
  2  3  1  6  0  0  0
  2 15  1  0  0  0  0
  2  4  1  0  0  0  0
  4  5  1  1  0  0  0
  4  6  1  0  0  0  0
  4 12  1  0  0  0  0
  6 11  1  0  0  0  0
  6  7  2  0  0  0  0
  7  8  1  0  0  0  0
  8  9  2  0  0  0  0
  9 10  1  0  0  0  0
 10 11  2  0  0  0  0
 12 13  1  0  0  0  0
 13 14  1  0  0  0  0
 14 15  1  0  0  0  0
 15 16  1  0  0  0  0
M  END
$$$$

 OpenBabel10082008492D

 19 19  0  0  0  0  0  0  0  0999 V2000
   -2.5981   -0.5000    0.0000 C   0  0  0  0  0  0  0  0  0  0  0  0
   -2.5981   -1.5000    0.0000 C   0  0  0  0  0  0  0  0  0  0  0  0
   -3.4641   -2.0000    0.0000 C   0  0  0  0  0  0  0  0  0  0  0  0
   -1.7321   -2.0000    0.0000 C   0  0  0  0  0  0  0  0  0  0  0  0
   -1.7321   -3.0000    0.0000 O   0  0  0  0  0  0  0  0  0  0  0  0
   -0.8660   -1.5000    0.0000 N   0  0  0  0  0  0  0  0  0  0  0  0
   -0.8660   -0.5000    0.0000 C   0  0  0  0  0  0  0  0  0  0  0  0
   -1.7321   -0.0000    0.0000 C   0  0  0  0  0  0  0  0  0  0  0  0
   -1.7321    1.0000    0.0000 C   0  0  0  0  0  0  0  0  0  0  0  0
   -0.8660    1.5000    0.0000 C   0  0  0  0  0  0  0  0  0  0  0  0
   -0.8660    2.5000    0.0000 N   0  3  0  0  0  0  0  0  0  0  0  0
   -0.0000    3.0000    0.0000 O   0  0  0  0  0  0  0  0  0  0  0  0
   -1.7321    3.0000    0.0000 O   0  5  0  0  0  0  0  0  0  0  0  0
   -0.0000    1.0000    0.0000 C   0  0  0  0  0  0  0  0  0  0  0  0
    0.8660    1.5000    0.0000 C   0  0  0  0  0  0  0  0  0  0  0  0
    1.3660    2.3660    0.0000 F   0  0  0  0  0  0  0  0  0  0  0  0
    0.3660    2.3660    0.0000 F   0  0  0  0  0  0  0  0  0  0  0  0
    1.7321    1.0000    0.0000 F   0  0  0  0  0  0  0  0  0  0  0  0
    0.0000   -0.0000    0.0000 C   0  0  0  0  0  0  0  0  0  0  0  0
  1  2  1  0  0  0  0
  2  3  1  0  0  0  0
  2  4  1  0  0  0  0
  4  5  2  0  0  0  0
  4  6  1  0  0  0  0
  6  7  1  0  0  0  0
  7 19  1  0  0  0  0
  7  8  2  0  0  0  0
  8  9  1  0  0  0  0
  9 10  2  0  0  0  0
 10 11  1  0  0  0  0
 10 14  1  0  0  0  0
 11 12  2  0  0  0  0
 11 13  1  0  0  0  0
 14 15  1  0  0  0  0
 14 19  2  0  0  0  0
 15 16  1  0  0  0  0
 15 17  1  0  0  0  0
 15 18  1  0  0  0  0
M  CHG  2  11   1  13  -1
M  END
$$$$

 OpenBabel10082008492D

  9  8  0  0  0  0  0  0  0  0999 V2000
   -0.8660   -0.5000    0.0000 C   0  0  0  0  0  0  0  0  0  0  0  0
   -0.8660   -1.5000    0.0000 N   0  0  0  0  0  0  0  0  0  0  0  0
   -1.7321   -2.0000    0.0000 C   0  0  0  0  0  0  0  0  0  0  0  0
   -0.0000   -2.0000    0.0000 C   0  0  0  0  0  0  0  0  0  0  0  0
   -0.0000   -3.0000    0.0000 N   0  0  0  0  0  0  0  0  0  0  0  0
    0.8660   -1.5000    0.0000 N   0  0  0  0  0  0  0  0  0  0  0  0
    0.8660   -0.5000    0.0000 C   0  0  0  0  0  0  0  0  0  0  0  0
    1.7321   -0.0000    0.0000 N   0  0  0  0  0  0  0  0  0  0  0  0
    0.0000   -0.0000    0.0000 N   0  0  0  0  0  0  0  0  0  0  0  0
  1  2  1  0  0  0  0
  2  3  1  0  0  0  0
  2  4  1  0  0  0  0
  4  5  2  0  0  0  0
  4  6  1  0  0  0  0
  6  7  1  0  0  0  0
  7  8  2  0  0  0  0
  7  9  1  0  0  0  0
M  END
$$$$

 OpenBabel10082008492D

 19 20  0  0  1  0  0  0  0  0999 V2000
    0.8660   -4.5000    0.0000 C   0  0  0  0  0  0  0  0  0  0  0  0
    1.7321   -4.0000    0.0000 N   0  0  0  0  0  0  0  0  0  0  0  0
    2.5981   -4.5000    0.0000 C   0  0  0  0  0  0  0  0  0  0  0  0
    1.7321   -3.0000    0.0000 C   0  0  0  0  0  0  0  0  0  0  0  0
    0.8660   -2.5000    0.0000 C   0  0  0  0  0  0  0  0  0  0  0  0
    0.8660   -1.5000    0.0000 C   0  0  3  0  0  0  0  0  0  0  0  0
    1.7321   -1.0000    0.0000 C   0  0  0  0  0  0  0  0  0  0  0  0
    1.7321   -0.0000    0.0000 C   0  0  0  0  0  0  0  0  0  0  0  0
    2.5981    0.5000    0.0000 C   0  0  0  0  0  0  0  0  0  0  0  0
    3.4641   -0.0000    0.0000 C   0  0  0  0  0  0  0  0  0  0  0  0
    4.3301    0.5000    0.0000 Cl  0  0  0  0  0  0  0  0  0  0  0  0
    3.4641   -1.0000    0.0000 C   0  0  0  0  0  0  0  0  0  0  0  0
    2.5981   -1.5000    0.0000 C   0  0  0  0  0  0  0  0  0  0  0  0
   -0.0000   -1.0000    0.0000 C   0  0  0  0  0  0  0  0  0  0  0  0
   -0.8660   -1.5000    0.0000 C   0  0  0  0  0  0  0  0  0  0  0  0
   -1.7321   -1.0000    0.0000 C   0  0  0  0  0  0  0  0  0  0  0  0
   -1.7321    0.0000    0.0000 C   0  0  0  0  0  0  0  0  0  0  0  0
   -0.8660    0.5000    0.0000 C   0  0  0  0  0  0  0  0  0  0  0  0
    0.0000    0.0000    0.0000 N   0  0  0  0  0  0  0  0  0  0  0  0
  1  2  1  0  0  0  0
  2  3  1  0  0  0  0
  2  4  1  0  0  0  0
  4  5  1  0  0  0  0
  5  6  1  0  0  0  0
  6  7  1  0  0  0  0
  6 14  1  0  0  0  0
  7 13  1  0  0  0  0
  7  8  2  0  0  0  0
  8  9  1  0  0  0  0
  9 10  2  0  0  0  0
 10 11  1  0  0  0  0
 10 12  1  0  0  0  0
 12 13  2  0  0  0  0
 14 19  1  0  0  0  0
 14 15  2  0  0  0  0
 15 16  1  0  0  0  0
 16 17  2  0  0  0  0
 17 18  1  0  0  0  0
 18 19  2  0  0  0  0
M  END
$$$$

 OpenBabel10082008492D

 21 23  0  0  0  0  0  0  0  0999 V2000
   -1.7321    0.0000    0.0000 C   0  0  0  0  0  0  0  0  0  0  0  0
   -0.8660    0.5000    0.0000 C   0  0  0  0  0  0  0  0  0  0  0  0
   -0.8660    1.5000    0.0000 C   0  0  0  0  0  0  0  0  0  0  0  0
    0.0000    2.0000    0.0000 C   0  0  0  0  0  0  0  0  0  0  0  0
    0.8660    1.5000    0.0000 C   0  0  0  0  0  0  0  0  0  0  0  0
    1.7321    2.0000    0.0000 S   0  0  0  0  0  0  0  0  0  0  0  0
    1.7321    3.0000    0.0000 C   0  0  0  0  0  0  0  0  0  0  0  0
    0.8660    3.5000    0.0000 C   0  0  0  0  0  0  0  0  0  0  0  0
    0.8660    4.5000    0.0000 C   0  0  0  0  0  0  0  0  0  0  0  0
    1.7321    5.0000    0.0000 C   0  0  0  0  0  0  0  0  0  0  0  0
    2.5981    4.5000    0.0000 C   0  0  0  0  0  0  0  0  0  0  0  0
    2.5981    3.5000    0.0000 C   0  0  0  0  0  0  0  0  0  0  0  0
    3.4641    3.0000    0.0000 N   0  0  0  0  0  0  0  0  0  0  0  0
    4.3301    3.5000    0.0000 C   0  0  0  0  0  0  0  0  0  0  0  0
    5.1962    3.0000    0.0000 C   0  0  0  0  0  0  0  0  0  0  0  0
    5.1962    2.0000    0.0000 N   0  0  0  0  0  0  0  0  0  0  0  0
    4.3301    1.5000    0.0000 C   0  0  0  0  0  0  0  0  0  0  0  0
    3.4641    2.0000    0.0000 C   0  0  0  0  0  0  0  0  0  0  0  0
    0.8660    0.5000    0.0000 C   0  0  0  0  0  0  0  0  0  0  0  0
    1.7321   -0.0000    0.0000 C   0  0  0  0  0  0  0  0  0  0  0  0
    0.0000    0.0000    0.0000 C   0  0  0  0  0  0  0  0  0  0  0  0
  1  2  1  0  0  0  0
  2 21  1  0  0  0  0
  2  3  2  0  0  0  0
  3  4  1  0  0  0  0
  4  5  2  0  0  0  0
  5  6  1  0  0  0  0
  5 19  1  0  0  0  0
  6  7  1  0  0  0  0
  7 12  1  0  0  0  0
  7  8  2  0  0  0  0
  8  9  1  0  0  0  0
  9 10  2  0  0  0  0
 10 11  1  0  0  0  0
 11 12  2  0  0  0  0
 12 13  1  0  0  0  0
 13 18  1  0  0  0  0
 13 14  1  0  0  0  0
 14 15  1  0  0  0  0
 15 16  1  0  0  0  0
 16 17  1  0  0  0  0
 17 18  1  0  0  0  0
 19 20  1  0  0  0  0
 19 21  2  0  0  0  0
M  END
$$$$

 OpenBabel10082008492D

 16 19  0  0  1  0  0  0  0  0999 V2000
    3.2325   -0.4078    0.0000 C   0  0  0  0  0  0  0  0  0  0  0  0
    3.2325    0.4077    0.0000 C   0  0  0  0  0  0  0  0  0  0  0  0
    2.5263    0.8154    0.0000 N   0  0  0  0  0  0  0  0  0  0  0  0
    1.8201    0.4077    0.0000 C   0  0  0  0  0  0  0  0  0  0  0  0
    1.1139    0.8154    0.0000 C   0  0  0  0  0  0  0  0  0  0  0  0
    0.4077    0.4077    0.0000 C   0  0  0  0  0  0  0  0  0  0  0  0
    0.4077   -0.4077    0.0000 C   0  0  0  0  0  0  0  0  0  0  0  0
    1.1139   -0.8155    0.0000 C   0  0  0  0  0  0  0  0  0  0  0  0
    1.8201   -0.4078    0.0000 C   0  0  0  0  0  0  0  0  0  0  0  0
    2.5263   -0.8155    0.0000 N   0  0  0  0  0  0  0  0  0  0  0  0
   -0.5569   -0.9646    0.0000 C   0  0  3  0  0  0  0  0  0  0  0  0
   -1.6707   -0.9646    0.0000 C   0  0  0  0  0  0  0  0  0  0  0  0
   -2.2276    0.0000    0.0000 N   0  0  0  0  0  0  0  0  0  0  0  0
   -1.6707    0.9646    0.0000 C   0  0  0  0  0  0  0  0  0  0  0  0
   -0.5569    0.9646    0.0000 C   0  0  3  0  0  0  0  0  0  0  0  0
   -0.0000   -0.0000    0.0000 C   0  0  0  0  0  0  0  0  0  0  0  0
  1 10  1  0  0  0  0
  1  2  2  0  0  0  0
  2  3  1  0  0  0  0
  3  4  2  0  0  0  0
  4  9  1  0  0  0  0
  4  5  1  0  0  0  0
  5  6  2  0  0  0  0
  6 15  1  0  0  0  0
  6  7  1  0  0  0  0
  7  8  2  0  0  0  0
  7 11  1  0  0  0  0
  8  9  1  0  0  0  0
  9 10  2  0  0  0  0
 11 16  1  0  0  0  0
 11 12  1  0  0  0  0
 12 13  1  0  0  0  0
 13 14  1  0  0  0  0
 14 15  1  0  0  0  0
 15 16  1  0  0  0  0
M  END
$$$$

 OpenBabel10082008492D

 16 16  0  0  1  0  0  0  0  0999 V2000
    2.5981   -1.5000    0.0000 C   0  0  0  0  0  0  0  0  0  0  0  0
    2.5981   -0.5000    0.0000 C   0  0  3  0  0  0  0  0  0  0  0  0
    3.4641   -0.0000    0.0000 N   0  0  0  0  0  0  0  0  0  0  0  0
    4.3301   -0.5000    0.0000 C   0  0  0  0  0  0  0  0  0  0  0  0
    5.3301   -0.5000    0.0000 C   0  0  0  0  0  0  0  0  0  0  0  0
    4.8301    0.3660    0.0000 C   0  0  0  0  0  0  0  0  0  0  0  0
    4.3301   -1.5000    0.0000 C   0  0  0  0  0  0  0  0  0  0  0  0
    1.7321   -0.0000    0.0000 C   0  0  0  0  0  0  0  0  0  0  0  0
    1.7321    1.0000    0.0000 O   0  0  0  0  0  0  0  0  0  0  0  0
    0.8660   -0.5000    0.0000 C   0  0  0  0  0  0  0  0  0  0  0  0
    0.8660   -1.5000    0.0000 C   0  0  0  0  0  0  0  0  0  0  0  0
   -0.0000   -2.0000    0.0000 C   0  0  0  0  0  0  0  0  0  0  0  0
   -0.8660   -1.5000    0.0000 C   0  0  0  0  0  0  0  0  0  0  0  0
   -0.8660   -0.5000    0.0000 C   0  0  0  0  0  0  0  0  0  0  0  0
   -1.7321    0.0000    0.0000 Cl  0  0  0  0  0  0  0  0  0  0  0  0
    0.0000    0.0000    0.0000 C   0  0  0  0  0  0  0  0  0  0  0  0
  1  2  1  0  0  0  0
  2  3  1  0  0  0  0
  2  8  1  0  0  0  0
  3  4  1  0  0  0  0
  4  5  1  0  0  0  0
  4  6  1  0  0  0  0
  4  7  1  0  0  0  0
  8  9  2  0  0  0  0
  8 10  1  0  0  0  0
 10 16  1  0  0  0  0
 10 11  2  0  0  0  0
 11 12  1  0  0  0  0
 12 13  2  0  0  0  0
 13 14  1  0  0  0  0
 14 15  1  0  0  0  0
 14 16  2  0  0  0  0
M  END
$$$$

 OpenBabel10082008492D

 36 39  0  0  0  0  0  0  0  0999 V2000
    2.5981    0.5000    0.0000 O   0  0  0  0  0  0  0  0  0  0  0  0
    2.5981    1.5000    0.0000 C   0  0  0  0  0  0  0  0  0  0  0  0
    1.7321    2.0000    0.0000 C   0  0  0  0  0  0  0  0  0  0  0  0
    0.8660    1.5000    0.0000 N   0  0  0  0  0  0  0  0  0  0  0  0
    0.0000    2.0000    0.0000 C   0  0  0  0  0  0  0  0  0  0  0  0
   -0.8660    1.5000    0.0000 C   0  0  0  0  0  0  0  0  0  0  0  0
   -1.7321    2.0000    0.0000 O   0  0  0  0  0  0  0  0  0  0  0  0
    0.8660    0.5000    0.0000 C   0  0  0  0  0  0  0  0  0  0  0  0
    1.7321    0.0000    0.0000 N   0  0  0  0  0  0  0  0  0  0  0  0
    1.7321   -1.0000    0.0000 C   0  0  0  0  0  0  0  0  0  0  0  0
    2.5981   -1.5000    0.0000 N   0  0  0  0  0  0  0  0  0  0  0  0
    3.4641   -1.0000    0.0000 C   0  0  0  0  0  0  0  0  0  0  0  0
    4.3301   -1.5000    0.0000 C   0  0  0  0  0  0  0  0  0  0  0  0
    4.3301   -2.5000    0.0000 C   0  0  0  0  0  0  0  0  0  0  0  0
    3.4641   -3.0000    0.0000 C   0  0  0  0  0  0  0  0  0  0  0  0
    2.5981   -2.5000    0.0000 C   0  0  0  0  0  0  0  0  0  0  0  0
    0.8660   -1.5000    0.0000 C   0  0  0  0  0  0  0  0  0  0  0  0
    0.8660   -2.5000    0.0000 N   0  0  0  0  0  0  0  0  0  0  0  0
    0.0000   -3.0000    0.0000 C   0  0  0  0  0  0  0  0  0  0  0  0
    0.0000   -4.0000    0.0000 N   0  0  0  0  0  0  0  0  0  0  0  0
   -0.8660   -4.5000    0.0000 C   0  0  0  0  0  0  0  0  0  0  0  0
   -1.7321   -4.0000    0.0000 C   0  0  0  0  0  0  0  0  0  0  0  0
   -2.5981   -4.5000    0.0000 O   0  0  0  0  0  0  0  0  0  0  0  0
    0.8660   -4.5000    0.0000 C   0  0  0  0  0  0  0  0  0  0  0  0
    0.8660   -5.5000    0.0000 C   0  0  0  0  0  0  0  0  0  0  0  0
    0.0000   -6.0000    0.0000 O   0  0  0  0  0  0  0  0  0  0  0  0
   -0.8660   -2.5000    0.0000 N   0  0  0  0  0  0  0  0  0  0  0  0
   -0.8660   -1.5000    0.0000 C   0  0  0  0  0  0  0  0  0  0  0  0
   -1.7321   -1.0000    0.0000 N   0  0  0  0  0  0  0  0  0  0  0  0
   -2.5981   -1.5000    0.0000 C   0  0  0  0  0  0  0  0  0  0  0  0
   -3.4641   -1.0000    0.0000 C   0  0  0  0  0  0  0  0  0  0  0  0
   -3.4641    0.0000    0.0000 C   0  0  0  0  0  0  0  0  0  0  0  0
   -2.5981    0.5000    0.0000 C   0  0  0  0  0  0  0  0  0  0  0  0
   -1.7321   -0.0000    0.0000 C   0  0  0  0  0  0  0  0  0  0  0  0
    0.0000   -1.0000    0.0000 C   0  0  0  0  0  0  0  0  0  0  0  0
   -0.0000   -0.0000    0.0000 N   0  0  0  0  0  0  0  0  0  0  0  0
  1  2  1  0  0  0  0
  2  3  1  0  0  0  0
  3  4  1  0  0  0  0
  4  5  1  0  0  0  0
  4  8  1  0  0  0  0
  5  6  1  0  0  0  0
  6  7  1  0  0  0  0
  8 36  1  0  0  0  0
  8  9  2  0  0  0  0
  9 10  1  0  0  0  0
 10 11  1  0  0  0  0
 10 17  2  0  0  0  0
 11 16  1  0  0  0  0
 11 12  1  0  0  0  0
 12 13  1  0  0  0  0
 13 14  1  0  0  0  0
 14 15  1  0  0  0  0
 15 16  1  0  0  0  0
 17 35  1  0  0  0  0
 17 18  1  0  0  0  0
 18 19  2  0  0  0  0
 19 20  1  0  0  0  0
 19 27  1  0  0  0  0
 20 21  1  0  0  0  0
 20 24  1  0  0  0  0
 21 22  1  0  0  0  0
 22 23  1  0  0  0  0
 24 25  1  0  0  0  0
 25 26  1  0  0  0  0
 27 28  2  0  0  0  0
 28 29  1  0  0  0  0
 28 35  1  0  0  0  0
 29 34  1  0  0  0  0
 29 30  1  0  0  0  0
 30 31  1  0  0  0  0
 31 32  1  0  0  0  0
 32 33  1  0  0  0  0
 33 34  1  0  0  0  0
 35 36  2  0  0  0  0
M  END
$$$$

 OpenBabel10082008492D

 29 32  0  0  0  0  0  0  0  0999 V2000
   -4.3301   -2.5000    0.0000 C   0  0  0  0  0  0  0  0  0  0  0  0
   -3.4641   -3.0000    0.0000 N   0  0  0  0  0  0  0  0  0  0  0  0
   -2.5981   -2.5000    0.0000 C   0  0  0  0  0  0  0  0  0  0  0  0
   -1.7321   -3.0000    0.0000 O   0  0  0  0  0  0  0  0  0  0  0  0
   -2.5981   -1.5000    0.0000 C   0  0  0  0  0  0  0  0  0  0  0  0
   -3.4641   -1.0000    0.0000 C   0  0  0  0  0  0  0  0  0  0  0  0
   -3.4641    0.0000    0.0000 C   0  0  0  0  0  0  0  0  0  0  0  0
   -2.5981    0.5000    0.0000 C   0  0  0  0  0  0  0  0  0  0  0  0
   -1.7321    0.0000    0.0000 C   0  0  0  0  0  0  0  0  0  0  0  0
   -1.7321   -1.0000    0.0000 C   0  0  0  0  0  0  0  0  0  0  0  0
   -0.8660   -1.5000    0.0000 S   0  0  0  0  0  0  0  0  0  0  0  0
   -0.0000   -1.0000    0.0000 C   0  0  0  0  0  0  0  0  0  0  0  0
    0.8660   -1.5000    0.0000 C   0  0  0  0  0  0  0  0  0  0  0  0
    1.7321   -1.0000    0.0000 C   0  0  0  0  0  0  0  0  0  0  0  0
    1.7321   -0.0000    0.0000 C   0  0  0  0  0  0  0  0  0  0  0  0
    2.4752    0.6691    0.0000 C   0  0  0  0  0  0  0  0  0  0  0  0
    3.4533    0.4612    0.0000 C   0  0  0  0  0  0  0  0  0  0  0  0
    4.1225    1.2044    0.0000 C   0  0  0  0  0  0  0  0  0  0  0  0
    5.1006    0.9965    0.0000 C   0  0  0  0  0  0  0  0  0  0  0  0
    5.4096    0.0454    0.0000 C   0  0  0  0  0  0  0  0  0  0  0  0
    6.3878   -0.1625    0.0000 C   0  0  0  0  0  0  0  0  0  0  0  0
    7.0569    0.5806    0.0000 C   0  0  0  0  0  0  0  0  0  0  0  0
    6.7479    1.5317    0.0000 C   0  0  0  0  0  0  0  0  0  0  0  0
    5.7698    1.7396    0.0000 N   0  0  0  0  0  0  0  0  0  0  0  0
    2.0685    1.5827    0.0000 N   0  0  0  0  0  0  0  0  0  0  0  0
    1.0739    1.4781    0.0000 N   0  0  0  0  0  0  0  0  0  0  0  0
    0.4048    2.2213    0.0000 H   0  0  0  0  0  0  0  0  0  0  0  0
    0.8660    0.5000    0.0000 C   0  0  0  0  0  0  0  0  0  0  0  0
    0.0000   -0.0000    0.0000 C   0  0  0  0  0  0  0  0  0  0  0  0
  1  2  1  0  0  0  0
  2  3  1  0  0  0  0
  3  4  2  0  0  0  0
  3  5  1  0  0  0  0
  5 10  1  0  0  0  0
  5  6  2  0  0  0  0
  6  7  1  0  0  0  0
  7  8  2  0  0  0  0
  8  9  1  0  0  0  0
  9 10  2  0  0  0  0
 10 11  1  0  0  0  0
 11 12  1  0  0  0  0
 12 29  1  0  0  0  0
 12 13  2  0  0  0  0
 13 14  1  0  0  0  0
 14 15  2  0  0  0  0
 15 28  1  0  0  0  0
 15 16  1  0  0  0  0
 16 17  1  0  0  0  0
 16 25  2  0  0  0  0
 17 18  2  0  0  0  0
 18 19  1  0  0  0  0
 19 24  1  0  0  0  0
 19 20  2  0  0  0  0
 20 21  1  0  0  0  0
 21 22  2  0  0  0  0
 22 23  1  0  0  0  0
 23 24  2  0  0  0  0
 25 26  1  0  0  0  0
 26 27  1  0  0  0  0
 26 28  1  0  0  0  0
 28 29  2  0  0  0  0
M  END
$$$$

 OpenBabel10082008492D

 39 39  0  0  1  0  0  0  0  0999 V2000
   -6.0622   -7.5000    0.0000 C   0  0  0  0  0  0  0  0  0  0  0  0
   -6.0622   -8.5000    0.0000 C   0  0  0  0  0  0  0  0  0  0  0  0
   -5.1962   -9.0000    0.0000 C   0  0  0  0  0  0  0  0  0  0  0  0
   -4.3301   -8.5000    0.0000 C   0  0  0  0  0  0  0  0  0  0  0  0
   -4.3301   -7.5000    0.0000 C   0  0  0  0  0  0  0  0  0  0  0  0
   -3.4641   -7.0000    0.0000 C   0  0  0  0  0  0  0  0  0  0  0  0
   -3.4641   -6.0000    0.0000 C   0  0  0  0  0  0  0  0  0  0  0  0
   -2.5981   -5.5000    0.0000 C   0  0  0  0  0  0  0  0  0  0  0  0
   -2.5981   -4.5000    0.0000 C   0  0  0  0  0  0  0  0  0  0  0  0
   -1.7321   -4.0000    0.0000 C   0  0  0  0  0  0  0  0  0  0  0  0
   -1.7321   -3.0000    0.0000 C   0  0  0  0  0  0  0  0  0  0  0  0
   -0.8660   -2.5000    0.0000 C   0  0  1  0  0  0  0  0  0  0  0  0
   -1.3660   -1.6340    0.0000 H   0  0  0  0  0  0  0  0  0  0  0  0
    0.0000   -2.0000    0.0000 C   0  0  0  0  0  0  0  0  0  0  0  0
    0.0000   -1.0000    0.0000 C   0  0  2  0  0  0  0  0  0  0  0  0
   -1.0000   -1.0000    0.0000 H   0  0  0  0  0  0  0  0  0  0  0  0
    0.0000   -0.0000    0.0000 O   0  0  0  0  0  0  0  0  0  0  0  0
    1.0000   -0.0000    0.0000 C   0  0  0  0  0  0  0  0  0  0  0  0
    1.7071    0.7071    0.0000 O   0  0  0  0  0  0  0  0  0  0  0  0
    1.0000   -1.0000    0.0000 C   0  0  1  0  0  0  0  0  0  0  0  0
    1.2588   -1.9659    0.0000 H   0  0  0  0  0  0  0  0  0  0  0  0
    1.9659   -1.2588    0.0000 C   0  0  0  0  0  0  0  0  0  0  0  0
    2.6730   -0.5517    0.0000 C   0  0  0  0  0  0  0  0  0  0  0  0
    3.6390   -0.8105    0.0000 C   0  0  0  0  0  0  0  0  0  0  0  0
    3.8978   -1.7765    0.0000 C   0  0  0  0  0  0  0  0  0  0  0  0
    4.8637   -2.0353    0.0000 C   0  0  0  0  0  0  0  0  0  0  0  0
    5.1225   -3.0012    0.0000 C   0  0  0  0  0  0  0  0  0  0  0  0
   -0.3660   -3.3660    0.0000 O   0  0  0  0  0  0  0  0  0  0  0  0
    0.6340   -3.3660    0.0000 C   0  0  0  0  0  0  0  0  0  0  0  0
    1.1340   -2.5000    0.0000 O   0  0  0  0  0  0  0  0  0  0  0  0
    1.1340   -4.2321    0.0000 C   0  0  2  0  0  0  0  0  0  0  0  0
    2.0000   -3.7321    0.0000 H   0  0  0  0  0  0  0  0  0  0  0  0
    1.6340   -5.0981    0.0000 C   0  0  0  0  0  0  0  0  0  0  0  0
    2.6340   -5.0981    0.0000 C   0  0  0  0  0  0  0  0  0  0  0  0
    3.1340   -4.2321    0.0000 C   0  0  0  0  0  0  0  0  0  0  0  0
    3.1340   -5.9641    0.0000 C   0  0  0  0  0  0  0  0  0  0  0  0
    0.2679   -4.7321    0.0000 N   0  0  0  0  0  0  0  0  0  0  0  0
    0.2679   -5.7321    0.0000 C   0  0  0  0  0  0  0  0  0  0  0  0
    1.1340   -6.2321    0.0000 O   0  0  0  0  0  0  0  0  0  0  0  0
  1  2  1  0  0  0  0
  2  3  1  0  0  0  0
  3  4  1  0  0  0  0
  4  5  1  0  0  0  0
  5  6  1  0  0  0  0
  6  7  1  0  0  0  0
  7  8  1  0  0  0  0
  8  9  1  0  0  0  0
  9 10  1  0  0  0  0
 10 11  1  0  0  0  0
 11 12  1  0  0  0  0
 12 13  1  6  0  0  0
 12 14  1  0  0  0  0
 12 28  1  0  0  0  0
 14 15  1  0  0  0  0
 15 16  1  1  0  0  0
 15 20  1  0  0  0  0
 15 17  1  0  0  0  0
 17 18  1  0  0  0  0
 18 19  2  0  0  0  0
 18 20  1  0  0  0  0
 20 21  1  6  0  0  0
 20 22  1  0  0  0  0
 22 23  1  0  0  0  0
 23 24  1  0  0  0  0
 24 25  1  0  0  0  0
 25 26  1  0  0  0  0
 26 27  1  0  0  0  0
 28 29  1  0  0  0  0
 29 30  2  0  0  0  0
 29 31  1  0  0  0  0
 31 32  1  1  0  0  0
 31 33  1  0  0  0  0
 31 37  1  0  0  0  0
 33 34  1  0  0  0  0
 34 35  1  0  0  0  0
 34 36  1  0  0  0  0
 37 38  1  0  0  0  0
 38 39  2  0  0  0  0
M  END
$$$$

 OpenBabel10082008492D

 17 18  0  0  0  0  0  0  0  0999 V2000
   -0.6810   -2.5886    0.0000 N   0  0  0  0  0  0  0  0  0  0  0  0
   -0.0933   -1.7796    0.0000 C   0  0  0  0  0  0  0  0  0  0  0  0
    0.9013   -1.8841    0.0000 O   0  0  0  0  0  0  0  0  0  0  0  0
   -0.5000   -0.8660    0.0000 C   0  0  0  0  0  0  0  0  0  0  0  0
   -1.4781   -0.6581    0.0000 C   0  0  0  0  0  0  0  0  0  0  0  0
   -1.5827    0.3364    0.0000 N   0  0  0  0  0  0  0  0  0  0  0  0
   -2.4487    0.8364    0.0000 C   0  0  0  0  0  0  0  0  0  0  0  0
   -3.3147    0.3364    0.0000 C   0  0  0  0  0  0  0  0  0  0  0  0
   -3.3147   -0.6636    0.0000 C   0  0  0  0  0  0  0  0  0  0  0  0
   -2.4487   -1.1636    0.0000 F   0  0  0  0  0  0  0  0  0  0  0  0
   -4.1808   -1.1636    0.0000 C   0  0  0  0  0  0  0  0  0  0  0  0
   -5.0468   -0.6636    0.0000 C   0  0  0  0  0  0  0  0  0  0  0  0
   -5.0468    0.3364    0.0000 C   0  0  0  0  0  0  0  0  0  0  0  0
   -4.1808    0.8364    0.0000 C   0  0  0  0  0  0  0  0  0  0  0  0
   -4.1808    1.8364    0.0000 F   0  0  0  0  0  0  0  0  0  0  0  0
   -0.6691    0.7431    0.0000 N   0  0  0  0  0  0  0  0  0  0  0  0
    0.0000    0.0000    0.0000 N   0  0  0  0  0  0  0  0  0  0  0  0
  1  2  1  0  0  0  0
  2  3  2  0  0  0  0
  2  4  1  0  0  0  0
  4 17  1  0  0  0  0
  4  5  2  0  0  0  0
  5  6  1  0  0  0  0
  6  7  1  0  0  0  0
  6 16  1  0  0  0  0
  7  8  1  0  0  0  0
  8 14  1  0  0  0  0
  8  9  2  0  0  0  0
  9 10  1  0  0  0  0
  9 11  1  0  0  0  0
 11 12  2  0  0  0  0
 12 13  1  0  0  0  0
 13 14  2  0  0  0  0
 14 15  1  0  0  0  0
 16 17  2  0  0  0  0
M  END
$$$$

 OpenBabel10082008492D

 19 20  0  0  0  0  0  0  0  0999 V2000
   -0.8660    4.5000    0.0000 C   0  0  0  0  0  0  0  0  0  0  0  0
   -1.7321    4.0000    0.0000 N   0  0  0  0  0  0  0  0  0  0  0  0
   -2.5981    4.5000    0.0000 C   0  0  0  0  0  0  0  0  0  0  0  0
   -1.7321    3.0000    0.0000 C   0  0  0  0  0  0  0  0  0  0  0  0
   -0.8660    2.5000    0.0000 C   0  0  0  0  0  0  0  0  0  0  0  0
   -0.8660    1.5000    0.0000 N   0  0  0  0  0  0  0  0  0  0  0  0
   -1.7321    1.0000    0.0000 C   0  0  0  0  0  0  0  0  0  0  0  0
   -1.7321    0.0000    0.0000 C   0  0  0  0  0  0  0  0  0  0  0  0
   -0.8660   -0.5000    0.0000 C   0  0  0  0  0  0  0  0  0  0  0  0
   -0.8660   -1.5000    0.0000 C   0  0  0  0  0  0  0  0  0  0  0  0
   -1.7321   -2.0000    0.0000 C   0  0  0  0  0  0  0  0  0  0  0  0
   -2.5981   -1.5000    0.0000 C   0  0  0  0  0  0  0  0  0  0  0  0
   -2.5981   -0.5000    0.0000 C   0  0  0  0  0  0  0  0  0  0  0  0
    0.0000    1.0000    0.0000 C   0  0  0  0  0  0  0  0  0  0  0  0
    0.8660    1.5000    0.0000 C   0  0  0  0  0  0  0  0  0  0  0  0
    1.7321    1.0000    0.0000 C   0  0  0  0  0  0  0  0  0  0  0  0
    1.7321   -0.0000    0.0000 C   0  0  0  0  0  0  0  0  0  0  0  0
    0.8660   -0.5000    0.0000 C   0  0  0  0  0  0  0  0  0  0  0  0
    0.0000   -0.0000    0.0000 N   0  0  0  0  0  0  0  0  0  0  0  0
  1  2  1  0  0  0  0
  2  3  1  0  0  0  0
  2  4  1  0  0  0  0
  4  5  1  0  0  0  0
  5  6  1  0  0  0  0
  6  7  1  0  0  0  0
  6 14  1  0  0  0  0
  7  8  1  0  0  0  0
  8 13  1  0  0  0  0
  8  9  2  0  0  0  0
  9 10  1  0  0  0  0
 10 11  2  0  0  0  0
 11 12  1  0  0  0  0
 12 13  2  0  0  0  0
 14 19  1  0  0  0  0
 14 15  2  0  0  0  0
 15 16  1  0  0  0  0
 16 17  2  0  0  0  0
 17 18  1  0  0  0  0
 18 19  2  0  0  0  0
M  END
$$$$

 OpenBabel10082008492D

 20 22  0  0  1  0  0  0  0  0999 V2000
   -4.5747   -0.4266    0.0000 C   0  0  0  0  0  0  0  0  0  0  0  0
   -3.8416   -1.1068    0.0000 N   0  0  0  0  0  0  0  0  0  0  0  0
   -2.8861   -0.8120    0.0000 C   0  0  0  0  0  0  0  0  0  0  0  0
   -2.1530   -1.4922    0.0000 C   0  0  0  0  0  0  0  0  0  0  0  0
   -1.1974   -1.1974    0.0000 C   0  0  0  0  0  0  0  0  0  0  0  0
   -0.9749   -0.2225    0.0000 C   0  0  3  0  0  0  0  0  0  0  0  0
   -1.7568    0.4010    0.0000 C   0  0  0  0  0  0  0  0  0  0  0  0
   -2.6228   -0.0990    0.0000 C   0  0  0  0  0  0  0  0  0  0  0  0
   -3.4888    0.4010    0.0000 C   0  0  0  0  0  0  0  0  0  0  0  0
   -3.4888    1.4010    0.0000 C   0  0  0  0  0  0  0  0  0  0  0  0
   -2.6228    1.9010    0.0000 C   0  0  0  0  0  0  0  0  0  0  0  0
   -1.7568    1.4010    0.0000 C   0  0  0  0  0  0  0  0  0  0  0  0
   -0.9749    2.0245    0.0000 C   0  0  0  0  0  0  0  0  0  0  0  0
   -0.0000    1.8019    0.0000 C   0  0  0  0  0  0  0  0  0  0  0  0
    0.4339    0.9010    0.0000 C   0  0  0  0  0  0  0  0  0  0  0  0
    1.4311    0.9757    0.0000 C   0  0  0  0  0  0  0  0  0  0  0  0
    1.9944    0.1495    0.0000 C   0  0  0  0  0  0  0  0  0  0  0  0
    1.5605   -0.7515    0.0000 C   0  0  0  0  0  0  0  0  0  0  0  0
    0.5633   -0.8262    0.0000 C   0  0  0  0  0  0  0  0  0  0  0  0
   -0.0000   -0.0000    0.0000 C   0  0  0  0  0  0  0  0  0  0  0  0
  1  2  1  0  0  0  0
  2  3  1  0  0  0  0
  3  4  1  0  0  0  0
  4  5  1  0  0  0  0
  5  6  1  0  0  0  0
  6 20  1  0  0  0  0
  6  7  1  0  0  0  0
  7 12  1  0  0  0  0
  7  8  2  0  0  0  0
  8  9  1  0  0  0  0
  9 10  2  0  0  0  0
 10 11  1  0  0  0  0
 11 12  2  0  0  0  0
 12 13  1  0  0  0  0
 13 14  2  0  0  0  0
 14 15  1  0  0  0  0
 15 20  1  0  0  0  0
 15 16  2  0  0  0  0
 16 17  1  0  0  0  0
 17 18  2  0  0  0  0
 18 19  1  0  0  0  0
 19 20  2  0  0  0  0
M  END
$$$$

 OpenBabel10082008492D

 16 15  0  0  1  0  0  0  0  0999 V2000
    3.2321    1.5981    0.0000 C   0  0  0  0  0  0  0  0  0  0  0  0
    3.2321    2.5981    0.0000 C   0  0  0  0  0  0  0  0  0  0  0  0
    2.3660    3.0981    0.0000 C   0  0  3  0  0  0  0  0  0  0  0  0
    2.3660    4.0981    0.0000 C   0  0  0  0  0  0  0  0  0  0  0  0
    1.5000    2.5981    0.0000 C   0  0  0  0  0  0  0  0  0  0  0  0
    1.0000    3.4641    0.0000 C   0  0  0  0  0  0  0  0  0  0  0  0
    0.6340    2.0981    0.0000 C   0  0  0  0  0  0  0  0  0  0  0  0
   -0.2321    2.5981    0.0000 O   0  0  0  0  0  0  0  0  0  0  0  0
   -1.0981    2.0981    0.0000 C   0  0  0  0  0  0  0  0  0  0  0  0
   -1.9641    2.5981    0.0000 N   0  0  0  0  0  0  0  0  0  0  0  0
   -1.0981    1.0981    0.0000 O   0  0  0  0  0  0  0  0  0  0  0  0
    2.0000    1.7321    0.0000 C   0  0  0  0  0  0  0  0  0  0  0  0
    1.5000    0.8660    0.0000 O   0  0  0  0  0  0  0  0  0  0  0  0
    0.5000    0.8660    0.0000 C   0  0  0  0  0  0  0  0  0  0  0  0
    0.0000    1.7321    0.0000 N   0  0  0  0  0  0  0  0  0  0  0  0
    0.0000    0.0000    0.0000 O   0  0  0  0  0  0  0  0  0  0  0  0
  1  2  1  0  0  0  0
  2  3  1  0  0  0  0
  3  4  1  0  0  0  0
  3  5  1  0  0  0  0
  5  6  1  0  0  0  0
  5  7  1  0  0  0  0
  5 12  1  0  0  0  0
  7  8  1  0  0  0  0
  8  9  1  0  0  0  0
  9 10  1  0  0  0  0
  9 11  2  0  0  0  0
 12 13  1  0  0  0  0
 13 14  1  0  0  0  0
 14 15  1  0  0  0  0
 14 16  2  0  0  0  0
M  END
$$$$

 OpenBabel10082008492D

 27 30  0  0  0  0  0  0  0  0999 V2000
    0.1340   -1.5000    0.0000 C   0  0  0  0  0  0  0  0  0  0  0  0
    1.0000   -1.0000    0.0000 C   0  0  0  0  0  0  0  0  0  0  0  0
    1.0000   -0.0000    0.0000 S   0  0  0  0  0  0  0  0  0  0  0  0
    2.0000   -0.0000    0.0000 O   0  0  0  0  0  0  0  0  0  0  0  0
    1.0000    1.0000    0.0000 O   0  0  0  0  0  0  0  0  0  0  0  0
    0.0000    0.0000    0.0000 N   0  0  0  0  0  0  0  0  0  0  0  0
   -0.7071   -0.7071    0.0000 C   0  0  0  0  0  0  0  0  0  0  0  0
   -1.4142   -0.0000    0.0000 C   0  0  0  0  0  0  0  0  0  0  0  0
   -2.2802    0.5000    0.0000 C   0  0  0  0  0  0  0  0  0  0  0  0
   -2.2802    1.5000    0.0000 C   0  0  0  0  0  0  0  0  0  0  0  0
   -2.2802    2.5000    0.0000 N   0  0  0  0  0  0  0  0  0  0  0  0
   -2.2802   -0.5000    0.0000 N   0  0  0  0  0  0  0  0  0  0  0  0
   -2.3848   -1.4945    0.0000 C   0  0  0  0  0  0  0  0  0  0  0  0
   -3.3629   -1.7024    0.0000 C   0  0  0  0  0  0  0  0  0  0  0  0
   -3.7697   -2.6160    0.0000 C   0  0  0  0  0  0  0  0  0  0  0  0
   -3.1819   -3.4250    0.0000 N   0  0  0  0  0  0  0  0  0  0  0  0
   -3.5886   -4.3385    0.0000 C   0  0  0  0  0  0  0  0  0  0  0  0
   -4.5831   -4.4431    0.0000 N   0  0  0  0  0  0  0  0  0  0  0  0
   -5.1709   -3.6341    0.0000 C   0  0  0  0  0  0  0  0  0  0  0  0
   -6.1654   -3.5295    0.0000 N   0  0  0  0  0  0  0  0  0  0  0  0
   -6.8346   -4.2727    0.0000 H   0  0  0  0  0  0  0  0  0  0  0  0
   -6.3733   -2.5514    0.0000 C   0  0  0  0  0  0  0  0  0  0  0  0
   -5.5073   -2.0514    0.0000 C   0  0  0  0  0  0  0  0  0  0  0  0
   -4.7642   -2.7205    0.0000 C   0  0  0  0  0  0  0  0  0  0  0  0
   -3.8629   -0.8364    0.0000 C   0  0  0  0  0  0  0  0  0  0  0  0
   -3.1938   -0.0933    0.0000 N   0  0  0  0  0  0  0  0  0  0  0  0
   -0.7071    0.7071    0.0000 C   0  0  0  0  0  0  0  0  0  0  0  0
  1  2  1  0  0  0  0
  2  3  1  0  0  0  0
  3  4  2  0  0  0  0
  3  5  2  0  0  0  0
  3  6  1  0  0  0  0
  6 27  1  0  0  0  0
  6  7  1  0  0  0  0
  7  8  1  0  0  0  0
  8  9  1  0  0  0  0
  8 12  1  0  0  0  0
  8 27  1  0  0  0  0
  9 10  1  0  0  0  0
 10 11  3  0  0  0  0
 12 26  1  0  0  0  0
 12 13  1  0  0  0  0
 13 14  2  0  0  0  0
 14 15  1  0  0  0  0
 14 25  1  0  0  0  0
 15 24  1  0  0  0  0
 15 16  2  0  0  0  0
 16 17  1  0  0  0  0
 17 18  2  0  0  0  0
 18 19  1  0  0  0  0
 19 24  2  0  0  0  0
 19 20  1  0  0  0  0
 20 21  1  0  0  0  0
 20 22  1  0  0  0  0
 22 23  2  0  0  0  0
 23 24  1  0  0  0  0
 25 26  2  0  0  0  0
M  END
$$$$

 OpenBabel10082008492D

 25 26  0  0  1  0  0  0  0  0999 V2000
    0.0000    1.7321    0.0000 C   0  0  0  0  0  0  0  0  0  0  0  0
    0.5000    0.8660    0.0000 C   0  0  0  0  0  0  0  0  0  0  0  0
    1.5000    0.8660    0.0000 C   0  0  0  0  0  0  0  0  0  0  0  0
    2.0000    0.0000    0.0000 C   0  0  0  0  0  0  0  0  0  0  0  0
    1.5000   -0.8660    0.0000 C   0  0  0  0  0  0  0  0  0  0  0  0
    2.0000   -1.7321    0.0000 O   0  0  0  0  0  0  0  0  0  0  0  0
    0.5000   -0.8660    0.0000 C   0  0  0  0  0  0  0  0  0  0  0  0
    0.0000   -1.7321    0.0000 C   0  0  2  0  0  0  0  0  0  0  0  0
    0.8660   -2.2321    0.0000 H   0  0  0  0  0  0  0  0  0  0  0  0
   -0.5000   -2.5981    0.0000 C   0  0  0  0  0  0  0  0  0  0  0  0
   -1.5000   -2.5981    0.0000 C   0  0  0  0  0  0  0  0  0  0  0  0
   -2.0000   -3.4641    0.0000 N   0  0  0  0  0  0  0  0  0  0  0  0
   -1.5000   -4.3301    0.0000 C   0  0  0  0  0  0  0  0  0  0  0  0
   -0.5000   -4.3301    0.0000 C   0  0  0  0  0  0  0  0  0  0  0  0
   -2.0000   -5.1962    0.0000 C   0  0  0  0  0  0  0  0  0  0  0  0
   -3.0000   -3.4641    0.0000 C   0  0  0  0  0  0  0  0  0  0  0  0
   -3.5000   -4.3301    0.0000 C   0  0  0  0  0  0  0  0  0  0  0  0
   -3.5000   -2.5981    0.0000 C   0  0  0  0  0  0  0  0  0  0  0  0
   -0.8660   -1.2321    0.0000 C   0  0  0  0  0  0  0  0  0  0  0  0
   -0.8660   -0.2321    0.0000 C   0  0  0  0  0  0  0  0  0  0  0  0
   -1.7321    0.2679    0.0000 C   0  0  0  0  0  0  0  0  0  0  0  0
   -2.5981   -0.2321    0.0000 C   0  0  0  0  0  0  0  0  0  0  0  0
   -2.5981   -1.2321    0.0000 C   0  0  0  0  0  0  0  0  0  0  0  0
   -1.7321   -1.7321    0.0000 C   0  0  0  0  0  0  0  0  0  0  0  0
    0.0000   -0.0000    0.0000 C   0  0  0  0  0  0  0  0  0  0  0  0
  1  2  1  0  0  0  0
  2 25  1  0  0  0  0
  2  3  2  0  0  0  0
  3  4  1  0  0  0  0
  4  5  2  0  0  0  0
  5  6  1  0  0  0  0
  5  7  1  0  0  0  0
  7  8  1  0  0  0  0
  7 25  2  0  0  0  0
  8  9  1  1  0  0  0
  8 10  1  0  0  0  0
  8 19  1  0  0  0  0
 10 11  1  0  0  0  0
 11 12  1  0  0  0  0
 12 13  1  0  0  0  0
 12 16  1  0  0  0  0
 13 14  1  0  0  0  0
 13 15  1  0  0  0  0
 16 17  1  0  0  0  0
 16 18  1  0  0  0  0
 19 24  1  0  0  0  0
 19 20  2  0  0  0  0
 20 21  1  0  0  0  0
 21 22  2  0  0  0  0
 22 23  1  0  0  0  0
 23 24  2  0  0  0  0
M  END
$$$$

 OpenBabel10082008492D

 30 32  0  0  1  0  0  0  0  0999 V2000
    2.4490    2.4888    0.0000 C   0  0  0  0  0  0  0  0  0  0  0  0
    1.5830    2.9888    0.0000 O   0  0  0  0  0  0  0  0  0  0  0  0
    0.7170    2.4888    0.0000 C   0  0  0  0  0  0  0  0  0  0  0  0
    0.7170    1.4888    0.0000 C   0  0  0  0  0  0  0  0  0  0  0  0
   -0.1490    0.9888    0.0000 C   0  0  0  0  0  0  0  0  0  0  0  0
   -1.0151    1.4888    0.0000 C   0  0  0  0  0  0  0  0  0  0  0  0
   -1.0151    2.4888    0.0000 C   0  0  0  0  0  0  0  0  0  0  0  0
   -1.8811    2.9888    0.0000 O   0  0  0  0  0  0  0  0  0  0  0  0
   -2.7471    2.4888    0.0000 C   0  0  0  0  0  0  0  0  0  0  0  0
   -0.1490    2.9888    0.0000 C   0  0  0  0  0  0  0  0  0  0  0  0
   -0.1490    3.9888    0.0000 O   0  0  0  0  0  0  0  0  0  0  0  0
   -1.0151    4.4888    0.0000 C   0  0  0  0  0  0  0  0  0  0  0  0
   -1.9459    1.1235    0.0000 C   0  0  0  0  0  0  0  0  0  0  0  0
   -2.5093    1.9497    0.0000 C   0  0  0  0  0  0  0  0  0  0  0  0
   -3.5065    2.0245    0.0000 C   0  0  0  0  0  0  0  0  0  0  0  0
   -4.1866    1.2914    0.0000 C   0  0  0  0  0  0  0  0  0  0  0  0
   -5.1422    1.5862    0.0000 O   0  0  0  0  0  0  0  0  0  0  0  0
   -5.8753    0.9060    0.0000 C   0  0  0  0  0  0  0  0  0  0  0  0
   -4.0376    0.3026    0.0000 C   0  0  0  0  0  0  0  0  0  0  0  0
   -4.8638   -0.2607    0.0000 O   0  0  0  0  0  0  0  0  0  0  0  0
   -3.1716   -0.1974    0.0000 C   0  0  0  0  0  0  0  0  0  0  0  0
   -2.2407    0.1679    0.0000 C   0  0  0  0  0  0  0  0  0  0  0  0
   -1.6774   -0.6583    0.0000 C   0  0  1  0  0  0  0  0  0  0  0  0
   -2.5434   -1.1583    0.0000 H   0  0  0  0  0  0  0  0  0  0  0  0
   -1.6774   -1.6583    0.0000 N   0  0  0  0  0  0  0  0  0  0  0  0
   -2.5434   -2.1583    0.0000 C   0  0  0  0  0  0  0  0  0  0  0  0
   -3.4094   -1.6583    0.0000 C   0  0  0  0  0  0  0  0  0  0  0  0
   -2.5434   -3.1583    0.0000 O   0  0  0  0  0  0  0  0  0  0  0  0
   -0.6802   -0.7331    0.0000 C   0  0  0  0  0  0  0  0  0  0  0  0
   -0.0000   -0.0000    0.0000 C   0  0  0  0  0  0  0  0  0  0  0  0
  1  2  1  0  0  0  0
  2  3  1  0  0  0  0
  3 10  1  0  0  0  0
  3  4  2  0  0  0  0
  4  5  1  0  0  0  0
  5 30  1  0  0  0  0
  5  6  2  0  0  0  0
  6  7  1  0  0  0  0
  6 13  1  0  0  0  0
  7  8  1  0  0  0  0
  7 10  2  0  0  0  0
  8  9  1  0  0  0  0
 10 11  1  0  0  0  0
 11 12  1  0  0  0  0
 13 22  1  0  0  0  0
 13 14  2  0  0  0  0
 14 15  1  0  0  0  0
 15 16  2  0  0  0  0
 16 17  1  0  0  0  0
 16 19  1  0  0  0  0
 17 18  1  0  0  0  0
 19 20  2  0  0  0  0
 19 21  1  0  0  0  0
 21 22  2  0  0  0  0
 22 23  1  0  0  0  0
 23 24  1  1  0  0  0
 23 25  1  0  0  0  0
 23 29  1  0  0  0  0
 25 26  1  0  0  0  0
 26 27  1  0  0  0  0
 26 28  2  0  0  0  0
 29 30  1  0  0  0  0
M  END
$$$$

 OpenBabel10082008492D

 35 38  0  0  0  0  0  0  0  0999 V2000
   -5.0623   -0.1503    0.0000 C   0  0  0  0  0  0  0  0  0  0  0  0
   -6.0134    0.1587    0.0000 C   0  0  0  0  0  0  0  0  0  0  0  0
   -6.2213    1.1369    0.0000 C   0  0  0  0  0  0  0  0  0  0  0  0
   -5.4781    1.8060    0.0000 C   0  0  0  0  0  0  0  0  0  0  0  0
   -5.5827    2.8005    0.0000 N   0  0  0  0  0  0  0  0  0  0  0  0
   -4.6691    3.2072    0.0000 C   0  0  0  0  0  0  0  0  0  0  0  0
   -4.4612    4.1854    0.0000 C   0  0  0  0  0  0  0  0  0  0  0  0
   -4.0000    2.4641    0.0000 C   0  0  0  0  0  0  0  0  0  0  0  0
   -3.0000    2.4641    0.0000 C   0  0  0  0  0  0  0  0  0  0  0  0
   -2.5000    3.3301    0.0000 O   0  0  0  0  0  0  0  0  0  0  0  0
   -2.5000    1.5981    0.0000 N   0  0  0  0  0  0  0  0  0  0  0  0
   -3.0000    0.7321    0.0000 C   0  0  0  0  0  0  0  0  0  0  0  0
   -2.5000   -0.1340    0.0000 C   0  0  0  0  0  0  0  0  0  0  0  0
   -1.5000   -0.1340    0.0000 C   0  0  0  0  0  0  0  0  0  0  0  0
   -1.0000   -1.0000    0.0000 C   0  0  0  0  0  0  0  0  0  0  0  0
    0.0000   -1.0000    0.0000 S   0  0  0  0  0  0  0  0  0  0  0  0
   -0.0000   -2.0000    0.0000 O   0  0  0  0  0  0  0  0  0  0  0  0
    1.0000   -1.0000    0.0000 O   0  0  0  0  0  0  0  0  0  0  0  0
   -0.0000   -0.0000    0.0000 N   0  0  0  0  0  0  0  0  0  0  0  0
   -0.8660    0.5000    0.0000 C   0  0  0  0  0  0  0  0  0  0  0  0
   -0.8660    1.5000    0.0000 C   0  0  0  0  0  0  0  0  0  0  0  0
    0.0000    2.0000    0.0000 N   0  0  0  0  0  0  0  0  0  0  0  0
    0.0000    3.0000    0.0000 C   0  0  0  0  0  0  0  0  0  0  0  0
    0.8660    3.5000    0.0000 C   0  0  0  0  0  0  0  0  0  0  0  0
    0.8660    1.5000    0.0000 C   0  0  0  0  0  0  0  0  0  0  0  0
    0.8660    0.5000    0.0000 C   0  0  0  0  0  0  0  0  0  0  0  0
   -1.5000   -1.8660    0.0000 C   0  0  0  0  0  0  0  0  0  0  0  0
   -2.5000   -1.8660    0.0000 C   0  0  0  0  0  0  0  0  0  0  0  0
   -3.0000   -1.0000    0.0000 C   0  0  0  0  0  0  0  0  0  0  0  0
   -4.0000   -1.0000    0.0000 O   0  0  0  0  0  0  0  0  0  0  0  0
   -4.5000   -1.8660    0.0000 C   0  0  0  0  0  0  0  0  0  0  0  0
   -5.5000   -1.8660    0.0000 C   0  0  0  0  0  0  0  0  0  0  0  0
   -4.0000    0.7321    0.0000 N   0  0  0  0  0  0  0  0  0  0  0  0
   -4.5000   -0.1340    0.0000 H   0  0  0  0  0  0  0  0  0  0  0  0
   -4.5000    1.5981    0.0000 N   0  0  0  0  0  0  0  0  0  0  0  0
  1  2  1  0  0  0  0
  2  3  1  0  0  0  0
  3  4  1  0  0  0  0
  4 35  1  0  0  0  0
  4  5  2  0  0  0  0
  5  6  1  0  0  0  0
  6  7  1  0  0  0  0
  6  8  2  0  0  0  0
  8 35  1  0  0  0  0
  8  9  1  0  0  0  0
  9 10  2  0  0  0  0
  9 11  1  0  0  0  0
 11 12  2  0  0  0  0
 12 13  1  0  0  0  0
 12 33  1  0  0  0  0
 13 29  1  0  0  0  0
 13 14  2  0  0  0  0
 14 15  1  0  0  0  0
 15 16  1  0  0  0  0
 15 27  2  0  0  0  0
 16 17  2  0  0  0  0
 16 18  2  0  0  0  0
 16 19  1  0  0  0  0
 19 26  1  0  0  0  0
 19 20  1  0  0  0  0
 20 21  1  0  0  0  0
 21 22  1  0  0  0  0
 22 23  1  0  0  0  0
 22 25  1  0  0  0  0
 23 24  1  0  0  0  0
 25 26  1  0  0  0  0
 27 28  1  0  0  0  0
 28 29  2  0  0  0  0
 29 30  1  0  0  0  0
 30 31  1  0  0  0  0
 31 32  1  0  0  0  0
 33 34  1  0  0  0  0
 33 35  1  0  0  0  0
M  END
$$$$

 OpenBabel10082008492D

 50 55  0  0  0  0  0  0  0  0999 V2000
    0.9344   -3.5035    0.0000 O   0  0  0  0  0  0  0  0  0  0  0  0
    0.1913   -2.8344    0.0000 C   0  0  0  0  0  0  0  0  0  0  0  0
    0.3992   -1.8562    0.0000 N   0  0  0  0  0  0  0  0  0  0  0  0
   -0.3439   -1.1871    0.0000 C   0  0  0  0  0  0  0  0  0  0  0  0
   -0.1360   -0.2090    0.0000 C   0  0  0  0  0  0  0  0  0  0  0  0
   -0.8792    0.4602    0.0000 C   0  0  0  0  0  0  0  0  0  0  0  0
   -1.8302    0.1512    0.0000 N   0  0  0  0  0  0  0  0  0  0  0  0
   -2.5734    0.8203    0.0000 C   0  0  0  0  0  0  0  0  0  0  0  0
   -2.3655    1.7984    0.0000 C   0  0  0  0  0  0  0  0  0  0  0  0
   -1.4144    2.1074    0.0000 C   0  0  0  0  0  0  0  0  0  0  0  0
   -1.2065    3.0856    0.0000 C   0  0  0  0  0  0  0  0  0  0  0  0
   -0.2554    3.3946    0.0000 C   0  0  0  0  0  0  0  0  0  0  0  0
    2.5981   -1.5000    0.0000 C   0  0  0  0  0  0  0  0  0  0  0  0
    3.4641   -1.0000    0.0000 O   0  0  0  0  0  0  0  0  0  0  0  0
    1.7321   -1.0000    0.0000 N   0  0  0  0  0  0  0  0  0  0  0  0
    0.8660   -1.5000    0.0000 C   0  0  0  0  0  0  0  0  0  0  0  0
    0.0000   -1.0000    0.0000 C   0  0  0  0  0  0  0  0  0  0  0  0
   -1.0000   -1.0000    0.0000 F   0  0  0  0  0  0  0  0  0  0  0  0
   -0.5000   -1.8660    0.0000 F   0  0  0  0  0  0  0  0  0  0  0  0
    0.0000   -0.0000    0.0000 F   0  0  0  0  0  0  0  0  0  0  0  0
    0.1513    2.4811    0.0000 C   0  0  0  0  0  0  0  0  0  0  0  0
   -0.2554    1.5675    0.0000 C   0  0  0  0  0  0  0  0  0  0  0  0
    0.3323    0.7585    0.0000 C   0  0  0  0  0  0  0  0  0  0  0  0
    1.3269    0.8630    0.0000 C   0  0  0  0  0  0  0  0  0  0  0  0
    1.7336    1.7766    0.0000 C   0  0  0  0  0  0  0  0  0  0  0  0
    1.1458    2.5856    0.0000 C   0  0  0  0  0  0  0  0  0  0  0  0
    1.3537    3.5637    0.0000 C   0  0  0  0  0  0  0  0  0  0  0  0
    2.2198    4.0637    0.0000 C   0  0  0  0  0  0  0  0  0  0  0  0
    2.2198    5.0637    0.0000 C   0  0  0  0  0  0  0  0  0  0  0  0
    1.3537    5.5637    0.0000 C   0  0  0  0  0  0  0  0  0  0  0  0
    0.4877    5.0637    0.0000 C   0  0  0  0  0  0  0  0  0  0  0  0
    0.4877    4.0637    0.0000 C   0  0  0  0  0  0  0  0  0  0  0  0
   -2.0381   -0.8270    0.0000 C   0  0  0  0  0  0  0  0  0  0  0  0
   -1.2950   -1.4961    0.0000 C   0  0  0  0  0  0  0  0  0  0  0  0
   -0.7598   -3.1434    0.0000 C   0  0  0  0  0  0  0  0  0  0  0  0
   -1.5029   -2.4743    0.0000 C   0  0  0  0  0  0  0  0  0  0  0  0
   -2.4540   -2.7833    0.0000 C   0  0  0  0  0  0  0  0  0  0  0  0
   -2.6619   -3.7614    0.0000 C   0  0  0  0  0  0  0  0  0  0  0  0
   -1.9187   -4.4306    0.0000 C   0  0  0  0  0  0  0  0  0  0  0  0
   -0.9677   -4.1216    0.0000 C   0  0  0  0  0  0  0  0  0  0  0  0
   -0.2245   -4.7907    0.0000 C   0  0  0  0  0  0  0  0  0  0  0  0
   -0.4324   -5.7688    0.0000 C   0  0  0  0  0  0  0  0  0  0  0  0
    0.3107   -6.4380    0.0000 C   0  0  0  0  0  0  0  0  0  0  0  0
    1.2618   -6.1289    0.0000 C   0  0  0  0  0  0  0  0  0  0  0  0
    2.0049   -6.7981    0.0000 C   0  0  0  0  0  0  0  0  0  0  0  0
    2.3139   -7.7491    0.0000 F   0  0  0  0  0  0  0  0  0  0  0  0
    1.3358   -7.5412    0.0000 F   0  0  0  0  0  0  0  0  0  0  0  0
    2.9560   -6.4891    0.0000 F   0  0  0  0  0  0  0  0  0  0  0  0
    1.4697   -5.1508    0.0000 C   0  0  0  0  0  0  0  0  0  0  0  0
    0.7265   -4.4817    0.0000 C   0  0  0  0  0  0  0  0  0  0  0  0
  1  2  2  0  0  0  0
  2  3  1  0  0  0  0
  2 35  1  0  0  0  0
  3  4  1  0  0  0  0
  4 34  1  0  0  0  0
  4  5  1  0  0  0  0
  5  6  1  0  0  0  0
  6  7  1  0  0  0  0
  7  8  1  0  0  0  0
  7 33  1  0  0  0  0
  8  9  1  0  0  0  0
  9 10  1  0  0  0  0
 10 11  1  0  0  0  0
 11 12  1  0  0  0  0
 12 32  1  0  0  0  0
 12 13  1  0  0  0  0
 12 21  1  0  0  0  0
 13 14  2  0  0  0  0
 13 15  1  0  0  0  0
 15 16  1  0  0  0  0
 16 17  1  0  0  0  0
 17 18  1  0  0  0  0
 17 19  1  0  0  0  0
 17 20  1  0  0  0  0
 21 26  1  0  0  0  0
 21 22  2  0  0  0  0
 22 23  1  0  0  0  0
 23 24  2  0  0  0  0
 24 25  1  0  0  0  0
 25 26  2  0  0  0  0
 26 27  1  0  0  0  0
 27 32  1  0  0  0  0
 27 28  2  0  0  0  0
 28 29  1  0  0  0  0
 29 30  2  0  0  0  0
 30 31  1  0  0  0  0
 31 32  2  0  0  0  0
 33 34  1  0  0  0  0
 35 40  1  0  0  0  0
 35 36  2  0  0  0  0
 36 37  1  0  0  0  0
 37 38  2  0  0  0  0
 38 39  1  0  0  0  0
 39 40  2  0  0  0  0
 40 41  1  0  0  0  0
 41 50  1  0  0  0  0
 41 42  2  0  0  0  0
 42 43  1  0  0  0  0
 43 44  2  0  0  0  0
 44 45  1  0  0  0  0
 44 49  1  0  0  0  0
 45 46  1  0  0  0  0
 45 47  1  0  0  0  0
 45 48  1  0  0  0  0
 49 50  2  0  0  0  0
M  END
$$$$

 OpenBabel10082008492D

 33 35  0  0  1  0  0  0  0  0999 V2000
    0.8660   -2.5000    0.0000 C   0  0  0  0  0  0  0  0  0  0  0  0
    0.8660   -1.5000    0.0000 O   0  0  0  0  0  0  0  0  0  0  0  0
    0.0000   -1.0000    0.0000 C   0  0  0  0  0  0  0  0  0  0  0  0
   -0.8660   -1.5000    0.0000 C   0  0  0  0  0  0  0  0  0  0  0  0
   -1.7321   -1.0000    0.0000 C   0  0  0  0  0  0  0  0  0  0  0  0
   -2.5981   -1.5000    0.0000 C   0  0  0  0  0  0  0  0  0  0  0  0
   -1.7321   -0.0000    0.0000 C   0  0  0  0  0  0  0  0  0  0  0  0
   -2.5981    0.5000    0.0000 C   0  0  0  0  0  0  0  0  0  0  0  0
   -3.4641   -0.0000    0.0000 O   0  0  0  0  0  0  0  0  0  0  0  0
   -4.3301    0.5000    0.0000 C   0  0  0  0  0  0  0  0  0  0  0  0
   -5.1962   -0.0000    0.0000 C   0  0  0  0  0  0  0  0  0  0  0  0
   -6.0622    0.5000    0.0000 C   0  0  0  0  0  0  0  0  0  0  0  0
   -6.0622    1.5000    0.0000 C   0  0  0  0  0  0  0  0  0  0  0  0
   -5.1962    2.0000    0.0000 C   0  0  0  0  0  0  0  0  0  0  0  0
   -5.1962    3.0000    0.0000 C   0  0  0  0  0  0  0  0  0  0  0  0
   -5.6962    3.8660    0.0000 F   0  0  0  0  0  0  0  0  0  0  0  0
   -6.1962    3.0000    0.0000 F   0  0  0  0  0  0  0  0  0  0  0  0
   -4.3301    3.5000    0.0000 F   0  0  0  0  0  0  0  0  0  0  0  0
   -4.3301    1.5000    0.0000 C   0  0  0  0  0  0  0  0  0  0  0  0
   -2.5981    1.5000    0.0000 C   0  0  0  0  0  0  0  0  0  0  0  0
   -3.4641    2.0000    0.0000 O   0  0  0  0  0  0  0  0  0  0  0  0
   -3.4641    3.0000    0.0000 C   0  0  0  0  0  0  0  0  0  0  0  0
   -1.7321    2.0000    0.0000 C   0  0  0  0  0  0  0  0  0  0  0  0
   -0.8660    1.5000    0.0000 C   0  0  0  0  0  0  0  0  0  0  0  0
   -0.0000    2.0000    0.0000 N   0  0  0  0  0  0  0  0  0  0  0  0
   -0.0000    3.0000    0.0000 C   0  0  3  0  0  0  0  0  0  0  0  0
   -0.8660    3.5000    0.0000 C   0  0  0  0  0  0  0  0  0  0  0  0
    0.8660    3.5000    0.0000 C   0  0  0  0  0  0  0  0  0  0  0  0
    1.7321    3.0000    0.0000 C   0  0  0  0  0  0  0  0  0  0  0  0
    2.5981    3.5000    0.0000 C   0  0  0  0  0  0  0  0  0  0  0  0
    3.4641    3.0000    0.0000 N   0  0  0  0  0  0  0  0  0  0  0  0
   -0.8660    0.5000    0.0000 C   0  0  0  0  0  0  0  0  0  0  0  0
   -0.0000   -0.0000    0.0000 N   0  0  0  0  0  0  0  0  0  0  0  0
  1  2  1  0  0  0  0
  2  3  1  0  0  0  0
  3 33  1  0  0  0  0
  3  4  2  0  0  0  0
  4  5  1  0  0  0  0
  5  6  1  0  0  0  0
  5  7  2  0  0  0  0
  7 32  1  0  0  0  0
  7  8  1  0  0  0  0
  8  9  1  0  0  0  0
  8 20  2  0  0  0  0
  9 10  1  0  0  0  0
 10 19  1  0  0  0  0
 10 11  2  0  0  0  0
 11 12  1  0  0  0  0
 12 13  2  0  0  0  0
 13 14  1  0  0  0  0
 14 15  1  0  0  0  0
 14 19  2  0  0  0  0
 15 16  1  0  0  0  0
 15 17  1  0  0  0  0
 15 18  1  0  0  0  0
 20 21  1  0  0  0  0
 20 23  1  0  0  0  0
 21 22  1  0  0  0  0
 23 24  2  0  0  0  0
 24 25  1  0  0  0  0
 24 32  1  0  0  0  0
 25 26  1  0  0  0  0
 26 27  1  0  0  0  0
 26 28  1  0  0  0  0
 28 29  1  0  0  0  0
 29 30  1  0  0  0  0
 30 31  1  0  0  0  0
 32 33  2  0  0  0  0
M  END
$$$$

 OpenBabel10082008492D

 15 16  0  0  1  0  0  0  0  0999 V2000
    2.3794    1.2260    0.0000 C   0  0  0  0  0  0  0  0  0  0  0  0
    1.3849    1.1215    0.0000 C   0  0  0  0  0  0  0  0  0  0  0  0
    0.9781    0.2079    0.0000 N   0  0  0  0  0  0  0  0  0  0  0  0
    1.4781   -0.6581    0.0000 C   0  0  0  0  0  0  0  0  0  0  0  0
    2.4727   -0.7626    0.0000 O   0  0  0  0  0  0  0  0  0  0  0  0
    0.8090   -1.4013    0.0000 N   0  0  0  0  0  0  0  0  0  0  0  0
   -0.1045   -0.9945    0.0000 C   0  0  3  0  0  0  0  0  0  0  0  0
   -0.9706   -1.4945    0.0000 C   0  0  0  0  0  0  0  0  0  0  0  0
   -0.9706   -2.4945    0.0000 C   0  0  0  0  0  0  0  0  0  0  0  0
   -1.8366   -2.9945    0.0000 C   0  0  0  0  0  0  0  0  0  0  0  0
   -2.7026   -2.4945    0.0000 C   0  0  0  0  0  0  0  0  0  0  0  0
   -2.7026   -1.4945    0.0000 C   0  0  0  0  0  0  0  0  0  0  0  0
   -1.8366   -0.9945    0.0000 C   0  0  0  0  0  0  0  0  0  0  0  0
    0.0000   -0.0000    0.0000 C   0  0  0  0  0  0  0  0  0  0  0  0
   -0.7431    0.6691    0.0000 O   0  0  0  0  0  0  0  0  0  0  0  0
  1  2  1  0  0  0  0
  2  3  1  0  0  0  0
  3 14  1  0  0  0  0
  3  4  1  0  0  0  0
  4  5  2  0  0  0  0
  4  6  1  0  0  0  0
  6  7  1  0  0  0  0
  7  8  1  0  0  0  0
  7 14  1  0  0  0  0
  8 13  1  0  0  0  0
  8  9  2  0  0  0  0
  9 10  1  0  0  0  0
 10 11  2  0  0  0  0
 11 12  1  0  0  0  0
 12 13  2  0  0  0  0
 14 15  2  0  0  0  0
M  END
$$$$

 OpenBabel10082008492D

 30 33  0  0  0  0  0  0  0  0999 V2000
   -0.8660   -5.5000    0.0000 C   0  0  0  0  0  0  0  0  0  0  0  0
   -0.0000   -6.0000    0.0000 C   0  0  0  0  0  0  0  0  0  0  0  0
    0.8660   -5.5000    0.0000 O   0  0  0  0  0  0  0  0  0  0  0  0
    0.8660   -4.5000    0.0000 C   0  0  0  0  0  0  0  0  0  0  0  0
    1.7321   -4.0000    0.0000 O   0  0  0  0  0  0  0  0  0  0  0  0
   -0.0000   -4.0000    0.0000 N   0  0  0  0  0  0  0  0  0  0  0  0
   -0.0000   -3.0000    0.0000 C   0  0  0  0  0  0  0  0  0  0  0  0
   -0.8660   -2.5000    0.0000 C   0  0  0  0  0  0  0  0  0  0  0  0
   -0.8660   -1.5000    0.0000 C   0  0  0  0  0  0  0  0  0  0  0  0
   -0.0000   -1.0000    0.0000 C   0  0  0  0  0  0  0  0  0  0  0  0
    0.8660   -1.5000    0.0000 C   0  0  0  0  0  0  0  0  0  0  0  0
    0.8660   -2.5000    0.0000 C   0  0  0  0  0  0  0  0  0  0  0  0
    1.7321   -1.0000    0.0000 N   0  0  0  0  0  0  0  0  0  0  0  0
    2.5981   -1.5000    0.0000 C   0  0  0  0  0  0  0  0  0  0  0  0
    2.5981   -2.5000    0.0000 O   0  0  0  0  0  0  0  0  0  0  0  0
    3.4641   -1.0000    0.0000 C   0  0  0  0  0  0  0  0  0  0  0  0
    3.4641   -0.0000    0.0000 C   0  0  0  0  0  0  0  0  0  0  0  0
    4.3301    0.5000    0.0000 N   0  0  0  0  0  0  0  0  0  0  0  0
    4.3301    1.5000    0.0000 C   0  0  0  0  0  0  0  0  0  0  0  0
    5.1962    2.0000    0.0000 C   0  0  0  0  0  0  0  0  0  0  0  0
    6.0622    1.5000    0.0000 O   0  0  0  0  0  0  0  0  0  0  0  0
    6.0622    0.5000    0.0000 C   0  0  0  0  0  0  0  0  0  0  0  0
    5.1962   -0.0000    0.0000 C   0  0  0  0  0  0  0  0  0  0  0  0
    1.7321   -0.0000    0.0000 C   0  0  0  0  0  0  0  0  0  0  0  0
    2.5981    0.5000    0.0000 C   0  0  0  0  0  0  0  0  0  0  0  0
    2.5981    1.5000    0.0000 C   0  0  0  0  0  0  0  0  0  0  0  0
    1.7321    2.0000    0.0000 C   0  0  0  0  0  0  0  0  0  0  0  0
    0.8660    1.5000    0.0000 C   0  0  0  0  0  0  0  0  0  0  0  0
    0.8660    0.5000    0.0000 C   0  0  0  0  0  0  0  0  0  0  0  0
    0.0000   -0.0000    0.0000 S   0  0  0  0  0  0  0  0  0  0  0  0
  1  2  1  0  0  0  0
  2  3  1  0  0  0  0
  3  4  1  0  0  0  0
  4  5  2  0  0  0  0
  4  6  1  0  0  0  0
  6  7  1  0  0  0  0
  7 12  1  0  0  0  0
  7  8  2  0  0  0  0
  8  9  1  0  0  0  0
  9 10  2  0  0  0  0
 10 30  1  0  0  0  0
 10 11  1  0  0  0  0
 11 12  2  0  0  0  0
 11 13  1  0  0  0  0
 13 14  1  0  0  0  0
 13 24  1  0  0  0  0
 14 15  2  0  0  0  0
 14 16  1  0  0  0  0
 16 17  1  0  0  0  0
 17 18  1  0  0  0  0
 18 23  1  0  0  0  0
 18 19  1  0  0  0  0
 19 20  1  0  0  0  0
 20 21  1  0  0  0  0
 21 22  1  0  0  0  0
 22 23  1  0  0  0  0
 24 29  1  0  0  0  0
 24 25  2  0  0  0  0
 25 26  1  0  0  0  0
 26 27  2  0  0  0  0
 27 28  1  0  0  0  0
 28 29  2  0  0  0  0
 29 30  1  0  0  0  0
M  END
$$$$

 OpenBabel10082008492D

 28 31  0  0  1  0  0  0  0  0999 V2000
   -1.3135    2.6931    0.0000 C   0  0  0  0  0  0  0  0  0  0  0  0
   -1.9013    1.8841    0.0000 O   0  0  0  0  0  0  0  0  0  0  0  0
   -1.4945    0.9706    0.0000 N   0  0  0  0  0  0  0  0  0  0  0  0
   -0.5000    0.8660    0.0000 C   0  0  0  0  0  0  0  0  0  0  0  0
    0.1691    1.6092    0.0000 C   0  0  0  0  0  0  0  0  0  0  0  0
    1.0827    1.2024    0.0000 N   0  0  0  0  0  0  0  0  0  0  0  0
    1.9487    1.7024    0.0000 C   0  0  0  0  0  0  0  0  0  0  0  0
    2.8147    1.2024    0.0000 N   0  0  0  0  0  0  0  0  0  0  0  0
    3.6808    1.7024    0.0000 C   0  0  0  0  0  0  0  0  0  0  0  0
    3.6808    2.7024    0.0000 C   0  0  0  0  0  0  0  0  0  0  0  0
    2.8147    3.2024    0.0000 C   0  0  0  0  0  0  0  0  0  0  0  0
    1.9487    2.7024    0.0000 C   0  0  0  0  0  0  0  0  0  0  0  0
    1.0827    3.2024    0.0000 F   0  0  0  0  0  0  0  0  0  0  0  0
    4.5468    3.2024    0.0000 C   0  0  0  0  0  0  0  0  0  0  0  0
    4.5468    4.2024    0.0000 O   0  0  0  0  0  0  0  0  0  0  0  0
    5.4128    2.7024    0.0000 C   0  0  0  0  0  0  0  0  0  0  0  0
    6.2788    3.2024    0.0000 C   0  0  0  0  0  0  0  0  0  0  0  0
    7.1449    2.7024    0.0000 O   0  0  0  0  0  0  0  0  0  0  0  0
    6.2788    4.2024    0.0000 O   0  0  0  0  0  0  0  0  0  0  0  0
    5.4128    1.7024    0.0000 C   0  0  0  0  0  0  0  0  0  0  0  0
    4.5468    1.2024    0.0000 N   0  0  0  0  0  0  0  0  0  0  0  0
    4.5468    0.2024    0.0000 C   0  0  0  0  0  0  0  0  0  0  0  0
    5.0468   -0.6636    0.0000 C   0  0  0  0  0  0  0  0  0  0  0  0
    4.0468   -0.6636    0.0000 C   0  0  0  0  0  0  0  0  0  0  0  0
    0.9781    0.2079    0.0000 C   0  0  0  0  0  0  0  0  0  0  0  0
   -0.0000   -0.0000    0.0000 C   0  0  3  0  0  0  0  0  0  0  0  0
   -0.4067   -0.9135    0.0000 C   0  0  0  0  0  0  0  0  0  0  0  0
   -1.4013   -1.0181    0.0000 N   0  0  0  0  0  0  0  0  0  0  0  0
  1  2  1  0  0  0  0
  2  3  1  0  0  0  0
  3  4  2  0  0  0  0
  4 26  1  0  0  0  0
  4  5  1  0  0  0  0
  5  6  1  0  0  0  0
  6  7  1  0  0  0  0
  6 25  1  0  0  0  0
  7 12  1  0  0  0  0
  7  8  2  0  0  0  0
  8  9  1  0  0  0  0
  9 21  1  0  0  0  0
  9 10  2  0  0  0  0
 10 11  1  0  0  0  0
 10 14  1  0  0  0  0
 11 12  2  0  0  0  0
 12 13  1  0  0  0  0
 14 15  2  0  0  0  0
 14 16  1  0  0  0  0
 16 17  1  0  0  0  0
 16 20  2  0  0  0  0
 17 18  2  0  0  0  0
 17 19  1  0  0  0  0
 20 21  1  0  0  0  0
 21 22  1  0  0  0  0
 22 24  1  0  0  0  0
 22 23  1  0  0  0  0
 23 24  1  0  0  0  0
 25 26  1  0  0  0  0
 26 27  1  0  0  0  0
 27 28  1  0  0  0  0
M  END
$$$$

 OpenBabel10082008492D

  8  8  0  0  1  0  0  0  0  0999 V2000
    1.2630    0.3032    0.0000 N   0  0  0  0  0  0  0  0  0  0  0  0
    0.8090   -0.5878    0.0000 C   0  0  2  0  0  0  0  0  0  0  0  0
    1.5919   -1.2100    0.0000 H   0  0  0  0  0  0  0  0  0  0  0  0
    0.5000   -1.5388    0.0000 C   0  0  0  0  0  0  0  0  0  0  0  0
   -0.5000   -1.5388    0.0000 O   0  0  0  0  0  0  0  0  0  0  0  0
   -0.8090   -0.5878    0.0000 N   0  0  0  0  0  0  0  0  0  0  0  0
    0.0000   -0.0000    0.0000 C   0  0  0  0  0  0  0  0  0  0  0  0
   -0.0000    1.0000    0.0000 O   0  0  0  0  0  0  0  0  0  0  0  0
  1  2  1  0  0  0  0
  2  3  1  1  0  0  0
  2  7  1  0  0  0  0
  2  4  1  0  0  0  0
  4  5  1  0  0  0  0
  5  6  1  0  0  0  0
  6  7  1  0  0  0  0
  7  8  2  0  0  0  0
M  END
$$$$

 OpenBabel10082008492D

 10  9  0  0  1  0  0  0  0  0999 V2000
   -2.5981   -1.5000    0.0000 C   0  0  0  0  0  0  0  0  0  0  0  0
   -2.5981   -0.5000    0.0000 C   0  0  0  0  0  0  0  0  0  0  0  0
   -3.0981    0.3660    0.0000 C   0  0  0  0  0  0  0  0  0  0  0  0
   -3.5981   -0.5000    0.0000 S   0  0  0  0  0  0  0  0  0  0  0  0
   -1.7321   -0.0000    0.0000 C   0  0  1  0  0  0  0  0  0  0  0  0
   -1.2321    0.8660    0.0000 H   0  0  0  0  0  0  0  0  0  0  0  0
   -2.2321    0.8660    0.0000 N   0  0  0  0  0  0  0  0  0  0  0  0
   -0.8660   -0.5000    0.0000 C   0  0  0  0  0  0  0  0  0  0  0  0
   -0.8660   -1.5000    0.0000 O   0  0  0  0  0  0  0  0  0  0  0  0
    0.0000    0.0000    0.0000 O   0  0  0  0  0  0  0  0  0  0  0  0
  1  2  1  0  0  0  0
  2  3  1  0  0  0  0
  2  4  1  0  0  0  0
  2  5  1  0  0  0  0
  5  6  1  6  0  0  0
  5  7  1  0  0  0  0
  5  8  1  0  0  0  0
  8  9  2  0  0  0  0
  8 10  1  0  0  0  0
M  END
$$$$

 OpenBabel10082008492D

 17 19  0  0  0  0  0  0  0  0999 V2000
    1.7788    0.8940    0.0000 O   0  0  0  0  0  0  0  0  0  0  0  0
    2.0878   -0.0570    0.0000 C   0  0  0  0  0  0  0  0  0  0  0  0
    3.0388   -0.3660    0.0000 C   0  0  0  0  0  0  0  0  0  0  0  0
    3.9049    0.1340    0.0000 C   0  0  0  0  0  0  0  0  0  0  0  0
    4.7709   -0.3660    0.0000 C   0  0  0  0  0  0  0  0  0  0  0  0
    4.7709   -1.3660    0.0000 C   0  0  0  0  0  0  0  0  0  0  0  0
    3.9049   -1.8660    0.0000 C   0  0  0  0  0  0  0  0  0  0  0  0
    3.0388   -1.3660    0.0000 C   0  0  0  0  0  0  0  0  0  0  0  0
    2.0878   -1.6750    0.0000 C   0  0  0  0  0  0  0  0  0  0  0  0
    1.7788   -2.6261    0.0000 O   0  0  0  0  0  0  0  0  0  0  0  0
    1.5000   -0.8660    0.0000 C   0  0  0  0  0  0  0  0  0  0  0  0
    0.5000   -0.8660    0.0000 C   0  0  0  0  0  0  0  0  0  0  0  0
    0.0000   -1.7321    0.0000 C   0  0  0  0  0  0  0  0  0  0  0  0
   -1.0000   -1.7321    0.0000 C   0  0  0  0  0  0  0  0  0  0  0  0
   -1.5000   -0.8660    0.0000 C   0  0  0  0  0  0  0  0  0  0  0  0
   -1.0000   -0.0000    0.0000 C   0  0  0  0  0  0  0  0  0  0  0  0
    0.0000   -0.0000    0.0000 C   0  0  0  0  0  0  0  0  0  0  0  0
  1  2  2  0  0  0  0
  2 11  1  0  0  0  0
  2  3  1  0  0  0  0
  3  8  1  0  0  0  0
  3  4  2  0  0  0  0
  4  5  1  0  0  0  0
  5  6  2  0  0  0  0
  6  7  1  0  0  0  0
  7  8  2  0  0  0  0
  8  9  1  0  0  0  0
  9 10  2  0  0  0  0
  9 11  1  0  0  0  0
 11 12  1  0  0  0  0
 12 17  1  0  0  0  0
 12 13  2  0  0  0  0
 13 14  1  0  0  0  0
 14 15  2  0  0  0  0
 15 16  1  0  0  0  0
 16 17  2  0  0  0  0
M  END
$$$$

 OpenBabel10082008492D

 22 24  0  0  0  0  0  0  0  0999 V2000
    1.2321   -0.8660    0.0000 O   0  0  0  0  0  0  0  0  0  0  0  0
    1.7321    0.0000    0.0000 C   0  0  0  0  0  0  0  0  0  0  0  0
    2.5981   -0.5000    0.0000 C   0  0  0  0  0  0  0  0  0  0  0  0
    2.5981   -1.5000    0.0000 N   0  0  0  0  0  0  0  0  0  0  0  0
    1.7891   -2.0878    0.0000 C   0  0  0  0  0  0  0  0  0  0  0  0
    2.0981   -3.0388    0.0000 N   0  0  0  0  0  0  0  0  0  0  0  0
    3.0981   -3.0388    0.0000 C   0  0  0  0  0  0  0  0  0  0  0  0
    3.4071   -2.0878    0.0000 N   0  0  0  0  0  0  0  0  0  0  0  0
    2.2321    0.8660    0.0000 C   0  0  0  0  0  0  0  0  0  0  0  0
    3.2321    0.8660    0.0000 N   0  0  0  0  0  0  0  0  0  0  0  0
    3.8198    0.0570    0.0000 C   0  0  0  0  0  0  0  0  0  0  0  0
    4.7709    0.3660    0.0000 N   0  0  0  0  0  0  0  0  0  0  0  0
    4.7709    1.3660    0.0000 C   0  0  0  0  0  0  0  0  0  0  0  0
    3.8198    1.6750    0.0000 N   0  0  0  0  0  0  0  0  0  0  0  0
    0.8660    0.5000    0.0000 C   0  0  0  0  0  0  0  0  0  0  0  0
    0.8660    1.5000    0.0000 C   0  0  0  0  0  0  0  0  0  0  0  0
    0.0000    2.0000    0.0000 C   0  0  0  0  0  0  0  0  0  0  0  0
   -0.8660    1.5000    0.0000 C   0  0  0  0  0  0  0  0  0  0  0  0
   -1.7321    2.0000    0.0000 F   0  0  0  0  0  0  0  0  0  0  0  0
   -0.8660    0.5000    0.0000 C   0  0  0  0  0  0  0  0  0  0  0  0
    0.0000    0.0000    0.0000 C   0  0  0  0  0  0  0  0  0  0  0  0
   -0.0000   -1.0000    0.0000 F   0  0  0  0  0  0  0  0  0  0  0  0
  1  2  1  0  0  0  0
  2  3  1  0  0  0  0
  2  9  1  0  0  0  0
  2 15  1  0  0  0  0
  3  4  1  0  0  0  0
  4  8  1  0  0  0  0
  4  5  1  0  0  0  0
  5  6  2  0  0  0  0
  6  7  1  0  0  0  0
  7  8  2  0  0  0  0
  9 10  1  0  0  0  0
 10 14  1  0  0  0  0
 10 11  1  0  0  0  0
 11 12  2  0  0  0  0
 12 13  1  0  0  0  0
 13 14  2  0  0  0  0
 15 21  1  0  0  0  0
 15 16  2  0  0  0  0
 16 17  1  0  0  0  0
 17 18  2  0  0  0  0
 18 19  1  0  0  0  0
 18 20  1  0  0  0  0
 20 21  2  0  0  0  0
 21 22  1  0  0  0  0
M  END
$$$$

 OpenBabel10082008492D

 57 61  0  0  1  0  0  0  0  0999 V2000
    0.9013    1.8841    0.0000 C   0  0  0  0  0  0  0  0  0  0  0  0
   -0.0933    1.7796    0.0000 C   0  0  0  0  0  0  0  0  0  0  0  0
   -0.6810    2.5886    0.0000 C   0  0  0  0  0  0  0  0  0  0  0  0
   -0.5000    0.8660    0.0000 C   0  0  0  0  0  0  0  0  0  0  0  0
   -1.4781    0.6581    0.0000 N   0  0  0  0  0  0  0  0  0  0  0  0
   -1.5827   -0.3364    0.0000 C   0  0  0  0  0  0  0  0  0  0  0  0
   -2.4487   -0.8364    0.0000 C   0  0  0  0  0  0  0  0  0  0  0  0
   -2.4487   -1.8364    0.0000 N   0  0  0  0  0  0  0  0  0  0  0  0
   -1.5827   -2.3364    0.0000 C   0  0  0  0  0  0  0  0  0  0  0  0
   -3.3147   -2.3364    0.0000 C   0  0  0  0  0  0  0  0  0  0  0  0
   -3.3147   -3.3364    0.0000 O   0  0  0  0  0  0  0  0  0  0  0  0
   -4.1808   -1.8364    0.0000 N   0  0  0  0  0  0  0  0  0  0  0  0
   -5.0468   -2.3364    0.0000 C   0  0  1  0  0  0  0  0  0  0  0  0
   -4.5468   -3.2024    0.0000 H   0  0  0  0  0  0  0  0  0  0  0  0
   -5.9128   -2.8364    0.0000 C   0  0  0  0  0  0  0  0  0  0  0  0
   -5.9128   -3.8364    0.0000 C   0  0  0  0  0  0  0  0  0  0  0  0
   -6.7788   -4.3364    0.0000 N   0  0  0  0  0  0  0  0  0  0  0  0
   -7.6449   -3.8364    0.0000 C   0  0  0  0  0  0  0  0  0  0  0  0
   -8.5109   -4.3364    0.0000 C   0  0  0  0  0  0  0  0  0  0  0  0
   -8.5109   -5.3364    0.0000 O   0  0  0  0  0  0  0  0  0  0  0  0
   -7.6449   -5.8364    0.0000 C   0  0  0  0  0  0  0  0  0  0  0  0
   -6.7788   -5.3364    0.0000 C   0  0  0  0  0  0  0  0  0  0  0  0
   -5.5468   -1.4704    0.0000 C   0  0  0  0  0  0  0  0  0  0  0  0
   -6.5468   -1.4704    0.0000 O   0  0  0  0  0  0  0  0  0  0  0  0
   -5.0468   -0.6044    0.0000 N   0  0  0  0  0  0  0  0  0  0  0  0
   -5.5468    0.2617    0.0000 C   0  0  2  0  0  0  0  0  0  0  0  0
   -6.4128   -0.2383    0.0000 H   0  0  0  0  0  0  0  0  0  0  0  0
   -6.0468    1.1277    0.0000 C   0  0  0  0  0  0  0  0  0  0  0  0
   -7.0468    1.1277    0.0000 C   0  0  0  0  0  0  0  0  0  0  0  0
   -7.5468    1.9937    0.0000 C   0  0  2  0  0  0  0  0  0  0  0  0
   -6.6808    2.4937    0.0000 H   0  0  0  0  0  0  0  0  0  0  0  0
   -8.0468    2.8597    0.0000 C   0  0  0  0  0  0  0  0  0  0  0  0
   -7.5468    3.7258    0.0000 C   0  0  0  0  0  0  0  0  0  0  0  0
   -6.5468    3.7258    0.0000 C   0  0  0  0  0  0  0  0  0  0  0  0
   -6.0468    4.5918    0.0000 C   0  0  0  0  0  0  0  0  0  0  0  0
   -6.5468    5.4578    0.0000 C   0  0  0  0  0  0  0  0  0  0  0  0
   -7.5468    5.4578    0.0000 C   0  0  0  0  0  0  0  0  0  0  0  0
   -8.0468    4.5918    0.0000 C   0  0  0  0  0  0  0  0  0  0  0  0
   -8.4128    1.4937    0.0000 N   0  0  0  0  0  0  0  0  0  0  0  0
   -9.2788    1.9937    0.0000 C   0  0  0  0  0  0  0  0  0  0  0  0
   -9.2788    2.9937    0.0000 O   0  0  0  0  0  0  0  0  0  0  0  0
  -10.1449    1.4937    0.0000 O   0  0  0  0  0  0  0  0  0  0  0  0
  -11.0109    1.9937    0.0000 C   0  0  0  0  0  0  0  0  0  0  0  0
  -11.0109    2.9937    0.0000 C   0  0  0  0  0  0  0  0  0  0  0  0
  -11.8199    3.5815    0.0000 C   0  0  0  0  0  0  0  0  0  0  0  0
  -11.5109    4.5326    0.0000 N   0  0  0  0  0  0  0  0  0  0  0  0
  -10.5109    4.5326    0.0000 C   0  0  0  0  0  0  0  0  0  0  0  0
  -10.2019    3.5815    0.0000 S   0  0  0  0  0  0  0  0  0  0  0  0
   -4.6808    0.7617    0.0000 C   0  0  0  0  0  0  0  0  0  0  0  0
   -4.6808    1.7617    0.0000 C   0  0  0  0  0  0  0  0  0  0  0  0
   -5.5468    2.2617    0.0000 C   0  0  0  0  0  0  0  0  0  0  0  0
   -5.5468    3.2617    0.0000 C   0  0  0  0  0  0  0  0  0  0  0  0
   -4.6808    3.7617    0.0000 C   0  0  0  0  0  0  0  0  0  0  0  0
   -3.8147    3.2617    0.0000 C   0  0  0  0  0  0  0  0  0  0  0  0
   -3.8147    2.2617    0.0000 C   0  0  0  0  0  0  0  0  0  0  0  0
   -0.6691   -0.7431    0.0000 C   0  0  0  0  0  0  0  0  0  0  0  0
    0.0000   -0.0000    0.0000 S   0  0  0  0  0  0  0  0  0  0  0  0
  1  2  1  0  0  0  0
  2  3  1  0  0  0  0
  2  4  1  0  0  0  0
  4 57  1  0  0  0  0
  4  5  2  0  0  0  0
  5  6  1  0  0  0  0
  6  7  1  0  0  0  0
  6 56  2  0  0  0  0
  7  8  1  0  0  0  0
  8  9  1  0  0  0  0
  8 10  1  0  0  0  0
 10 11  2  0  0  0  0
 10 12  1  0  0  0  0
 12 13  1  0  0  0  0
 13 14  1  6  0  0  0
 13 15  1  0  0  0  0
 13 23  1  0  0  0  0
 15 16  1  0  0  0  0
 16 17  1  0  0  0  0
 17 22  1  0  0  0  0
 17 18  1  0  0  0  0
 18 19  1  0  0  0  0
 19 20  1  0  0  0  0
 20 21  1  0  0  0  0
 21 22  1  0  0  0  0
 23 24  2  0  0  0  0
 23 25  1  0  0  0  0
 25 26  1  0  0  0  0
 26 27  1  1  0  0  0
 26 28  1  0  0  0  0
 26 49  1  0  0  0  0
 28 29  1  0  0  0  0
 29 30  1  0  0  0  0
 30 31  1  6  0  0  0
 30 32  1  0  0  0  0
 30 39  1  0  0  0  0
 32 33  1  0  0  0  0
 33 38  1  0  0  0  0
 33 34  2  0  0  0  0
 34 35  1  0  0  0  0
 35 36  2  0  0  0  0
 36 37  1  0  0  0  0
 37 38  2  0  0  0  0
 39 40  1  0  0  0  0
 40 41  2  0  0  0  0
 40 42  1  0  0  0  0
 42 43  1  0  0  0  0
 43 44  1  0  0  0  0
 44 48  1  0  0  0  0
 44 45  2  0  0  0  0
 45 46  1  0  0  0  0
 46 47  2  0  0  0  0
 47 48  1  0  0  0  0
 49 50  1  0  0  0  0
 50 55  1  0  0  0  0
 50 51  2  0  0  0  0
 51 52  1  0  0  0  0
 52 53  2  0  0  0  0
 53 54  1  0  0  0  0
 54 55  2  0  0  0  0
 56 57  1  0  0  0  0
M  END
$$$$

 OpenBabel10082008492D

 16 17  0  0  0  0  0  0  0  0999 V2000
    1.7321   -0.0000    0.0000 N   0  0  0  0  0  0  0  0  0  0  0  0
    0.8660   -0.5000    0.0000 C   0  0  0  0  0  0  0  0  0  0  0  0
    0.8660   -1.5000    0.0000 N   0  0  0  0  0  0  0  0  0  0  0  0
   -0.0000   -2.0000    0.0000 N   0  0  0  0  0  0  0  0  0  0  0  0
   -0.8660   -1.5000    0.0000 C   0  0  0  0  0  0  0  0  0  0  0  0
   -1.7321   -2.0000    0.0000 C   0  0  0  0  0  0  0  0  0  0  0  0
   -1.7321   -3.0000    0.0000 C   0  0  0  0  0  0  0  0  0  0  0  0
   -2.5981   -3.5000    0.0000 C   0  0  0  0  0  0  0  0  0  0  0  0
   -3.4641   -3.0000    0.0000 C   0  0  0  0  0  0  0  0  0  0  0  0
   -3.4641   -2.0000    0.0000 C   0  0  0  0  0  0  0  0  0  0  0  0
   -4.3301   -1.5000    0.0000 Cl  0  0  0  0  0  0  0  0  0  0  0  0
   -2.5981   -1.5000    0.0000 C   0  0  0  0  0  0  0  0  0  0  0  0
   -2.5981   -0.5000    0.0000 Cl  0  0  0  0  0  0  0  0  0  0  0  0
   -0.8660   -0.5000    0.0000 C   0  0  0  0  0  0  0  0  0  0  0  0
   -1.7321    0.0000    0.0000 N   0  0  0  0  0  0  0  0  0  0  0  0
    0.0000   -0.0000    0.0000 N   0  0  0  0  0  0  0  0  0  0  0  0
  1  2  1  0  0  0  0
  2 16  1  0  0  0  0
  2  3  2  0  0  0  0
  3  4  1  0  0  0  0
  4  5  2  0  0  0  0
  5  6  1  0  0  0  0
  5 14  1  0  0  0  0
  6 12  1  0  0  0  0
  6  7  2  0  0  0  0
  7  8  1  0  0  0  0
  8  9  2  0  0  0  0
  9 10  1  0  0  0  0
 10 11  1  0  0  0  0
 10 12  2  0  0  0  0
 12 13  1  0  0  0  0
 14 15  1  0  0  0  0
 14 16  2  0  0  0  0
M  END
$$$$

 OpenBabel10082008492D

 14 15  0  0  1  0  0  0  0  0999 V2000
    1.3849    1.1215    0.0000 C   0  0  0  0  0  0  0  0  0  0  0  0
    0.9781    0.2079    0.0000 N   0  0  0  0  0  0  0  0  0  0  0  0
    1.4781   -0.6581    0.0000 C   0  0  0  0  0  0  0  0  0  0  0  0
    2.4727   -0.7626    0.0000 O   0  0  0  0  0  0  0  0  0  0  0  0
    0.8090   -1.4013    0.0000 C   0  0  0  0  0  0  0  0  0  0  0  0
   -0.1045   -0.9945    0.0000 C   0  0  3  0  0  0  0  0  0  0  0  0
   -0.9706   -1.4945    0.0000 C   0  0  0  0  0  0  0  0  0  0  0  0
   -0.9706   -2.4945    0.0000 C   0  0  0  0  0  0  0  0  0  0  0  0
   -1.8366   -2.9945    0.0000 C   0  0  0  0  0  0  0  0  0  0  0  0
   -2.7026   -2.4945    0.0000 C   0  0  0  0  0  0  0  0  0  0  0  0
   -2.7026   -1.4945    0.0000 C   0  0  0  0  0  0  0  0  0  0  0  0
   -1.8366   -0.9945    0.0000 C   0  0  0  0  0  0  0  0  0  0  0  0
    0.0000   -0.0000    0.0000 C   0  0  0  0  0  0  0  0  0  0  0  0
   -0.7431    0.6691    0.0000 O   0  0  0  0  0  0  0  0  0  0  0  0
  1  2  1  0  0  0  0
  2 13  1  0  0  0  0
  2  3  1  0  0  0  0
  3  4  2  0  0  0  0
  3  5  1  0  0  0  0
  5  6  1  0  0  0  0
  6  7  1  0  0  0  0
  6 13  1  0  0  0  0
  7 12  1  0  0  0  0
  7  8  2  0  0  0  0
  8  9  1  0  0  0  0
  9 10  2  0  0  0  0
 10 11  1  0  0  0  0
 11 12  2  0  0  0  0
 13 14  2  0  0  0  0
M  END
$$$$

 OpenBabel10082008492D

 27 29  0  0  1  0  0  0  0  0999 V2000
    4.3301   -2.5000    0.0000 O   0  0  0  0  0  0  0  0  0  0  0  0
    4.3301   -1.5000    0.0000 C   0  0  0  0  0  0  0  0  0  0  0  0
    5.1962   -1.0000    0.0000 O   0  0  0  0  0  0  0  0  0  0  0  0
    3.4641   -1.0000    0.0000 C   0  0  0  0  0  0  0  0  0  0  0  0
    2.5981   -1.5000    0.0000 O   0  0  0  0  0  0  0  0  0  0  0  0
    1.7321   -1.0000    0.0000 C   0  0  0  0  0  0  0  0  0  0  0  0
    0.8660   -1.5000    0.0000 C   0  0  0  0  0  0  0  0  0  0  0  0
    0.0000   -1.0000    0.0000 N   0  0  0  0  0  0  0  0  0  0  0  0
   -0.8660   -1.5000    0.0000 C   0  0  0  0  0  0  0  0  0  0  0  0
   -1.7321   -1.0000    0.0000 C   0  0  0  0  0  0  0  0  0  0  0  0
   -1.7321   -0.0000    0.0000 N   0  0  0  0  0  0  0  0  0  0  0  0
   -2.5981    0.5000    0.0000 C   0  0  3  0  0  0  0  0  0  0  0  0
   -2.5981    1.5000    0.0000 C   0  0  0  0  0  0  0  0  0  0  0  0
   -3.4641    2.0000    0.0000 C   0  0  0  0  0  0  0  0  0  0  0  0
   -3.4641    3.0000    0.0000 C   0  0  0  0  0  0  0  0  0  0  0  0
   -2.5981    3.5000    0.0000 C   0  0  0  0  0  0  0  0  0  0  0  0
   -1.7321    3.0000    0.0000 C   0  0  0  0  0  0  0  0  0  0  0  0
   -1.7321    2.0000    0.0000 C   0  0  0  0  0  0  0  0  0  0  0  0
   -3.4641   -0.0000    0.0000 C   0  0  0  0  0  0  0  0  0  0  0  0
   -3.4641   -1.0000    0.0000 C   0  0  0  0  0  0  0  0  0  0  0  0
   -4.3301   -1.5000    0.0000 C   0  0  0  0  0  0  0  0  0  0  0  0
   -5.1962   -1.0000    0.0000 C   0  0  0  0  0  0  0  0  0  0  0  0
   -6.0622   -1.5000    0.0000 Cl  0  0  0  0  0  0  0  0  0  0  0  0
   -5.1962   -0.0000    0.0000 C   0  0  0  0  0  0  0  0  0  0  0  0
   -4.3301    0.5000    0.0000 C   0  0  0  0  0  0  0  0  0  0  0  0
   -0.8660    0.5000    0.0000 C   0  0  0  0  0  0  0  0  0  0  0  0
   -0.0000   -0.0000    0.0000 C   0  0  0  0  0  0  0  0  0  0  0  0
  1  2  2  0  0  0  0
  2  3  1  0  0  0  0
  2  4  1  0  0  0  0
  4  5  1  0  0  0  0
  5  6  1  0  0  0  0
  6  7  1  0  0  0  0
  7  8  1  0  0  0  0
  8 27  1  0  0  0  0
  8  9  1  0  0  0  0
  9 10  1  0  0  0  0
 10 11  1  0  0  0  0
 11 12  1  0  0  0  0
 11 26  1  0  0  0  0
 12 13  1  0  0  0  0
 12 19  1  0  0  0  0
 13 18  1  0  0  0  0
 13 14  2  0  0  0  0
 14 15  1  0  0  0  0
 15 16  2  0  0  0  0
 16 17  1  0  0  0  0
 17 18  2  0  0  0  0
 19 25  1  0  0  0  0
 19 20  2  0  0  0  0
 20 21  1  0  0  0  0
 21 22  2  0  0  0  0
 22 23  1  0  0  0  0
 22 24  1  0  0  0  0
 24 25  2  0  0  0  0
 26 27  1  0  0  0  0
M  END
$$$$

 OpenBabel10082008492D

 27 30  0  0  0  0  0  0  0  0999 V2000
   -4.7779    1.4738    0.0000 O   0  0  0  0  0  0  0  0  0  0  0  0
   -4.5553    0.4988    0.0000 C   0  0  0  0  0  0  0  0  0  0  0  0
   -3.5998    0.2041    0.0000 C   0  0  0  0  0  0  0  0  0  0  0  0
   -2.8667    0.8843    0.0000 O   0  0  0  0  0  0  0  0  0  0  0  0
   -1.9111    0.5895    0.0000 C   0  0  0  0  0  0  0  0  0  0  0  0
   -1.1781    1.2697    0.0000 C   0  0  0  0  0  0  0  0  0  0  0  0
   -0.2225    0.9749    0.0000 N   0  0  0  0  0  0  0  0  0  0  0  0
    0.5105    1.6551    0.0000 C   0  0  0  0  0  0  0  0  0  0  0  0
    1.4661    1.3603    0.0000 C   0  0  0  0  0  0  0  0  0  0  0  0
    1.6886    0.3854    0.0000 N   0  0  0  0  0  0  0  0  0  0  0  0
    2.6442    0.0907    0.0000 C   0  0  0  0  0  0  0  0  0  0  0  0
    3.3244    0.8237    0.0000 N   0  0  0  0  0  0  0  0  0  0  0  0
    4.3216    0.7490    0.0000 C   0  0  0  0  0  0  0  0  0  0  0  0
    4.7555    1.6500    0.0000 C   0  0  0  0  0  0  0  0  0  0  0  0
    5.7527    1.7247    0.0000 C   0  0  0  0  0  0  0  0  0  0  0  0
    6.3160    0.8984    0.0000 C   0  0  0  0  0  0  0  0  0  0  0  0
    5.8821   -0.0025    0.0000 C   0  0  0  0  0  0  0  0  0  0  0  0
    4.8849   -0.0773    0.0000 C   0  0  0  0  0  0  0  0  0  0  0  0
    4.5901   -1.0328    0.0000 S   0  0  0  0  0  0  0  0  0  0  0  0
    3.6593   -1.3982    0.0000 C   0  0  0  0  0  0  0  0  0  0  0  0
    3.6593   -2.3982    0.0000 C   0  0  0  0  0  0  0  0  0  0  0  0
    2.7932   -2.8982    0.0000 C   0  0  0  0  0  0  0  0  0  0  0  0
    1.9272   -2.3982    0.0000 C   0  0  0  0  0  0  0  0  0  0  0  0
    1.9272   -1.3982    0.0000 C   0  0  0  0  0  0  0  0  0  0  0  0
    2.7932   -0.8982    0.0000 C   0  0  0  0  0  0  0  0  0  0  0  0
    0.9556   -0.2948    0.0000 C   0  0  0  0  0  0  0  0  0  0  0  0
    0.0000   -0.0000    0.0000 C   0  0  0  0  0  0  0  0  0  0  0  0
  1  2  1  0  0  0  0
  2  3  1  0  0  0  0
  3  4  1  0  0  0  0
  4  5  1  0  0  0  0
  5  6  1  0  0  0  0
  6  7  1  0  0  0  0
  7 27  1  0  0  0  0
  7  8  1  0  0  0  0
  8  9  1  0  0  0  0
  9 10  1  0  0  0  0
 10 11  1  0  0  0  0
 10 26  1  0  0  0  0
 11 25  1  0  0  0  0
 11 12  2  0  0  0  0
 12 13  1  0  0  0  0
 13 18  1  0  0  0  0
 13 14  2  0  0  0  0
 14 15  1  0  0  0  0
 15 16  2  0  0  0  0
 16 17  1  0  0  0  0
 17 18  2  0  0  0  0
 18 19  1  0  0  0  0
 19 20  1  0  0  0  0
 20 25  1  0  0  0  0
 20 21  2  0  0  0  0
 21 22  1  0  0  0  0
 22 23  2  0  0  0  0
 23 24  1  0  0  0  0
 24 25  2  0  0  0  0
 26 27  1  0  0  0  0
M  END
$$$$

 OpenBabel10082008492D

 16 17  0  0  0  0  0  0  0  0999 V2000
    0.8660   -1.5000    0.0000 N   0  0  0  0  0  0  0  0  0  0  0  0
    0.0000   -1.0000    0.0000 C   0  0  0  0  0  0  0  0  0  0  0  0
   -0.8660   -1.5000    0.0000 C   0  0  0  0  0  0  0  0  0  0  0  0
   -1.7321   -1.0000    0.0000 C   0  0  0  0  0  0  0  0  0  0  0  0
   -1.7321   -0.0000    0.0000 C   0  0  0  0  0  0  0  0  0  0  0  0
   -2.5981    0.5000    0.0000 N   0  0  0  0  0  0  0  0  0  0  0  0
   -3.4641   -0.0000    0.0000 N   0  0  0  0  0  0  0  0  0  0  0  0
   -4.3301    0.5000    0.0000 C   0  0  0  0  0  0  0  0  0  0  0  0
   -5.1962   -0.0000    0.0000 C   0  0  0  0  0  0  0  0  0  0  0  0
   -6.0622    0.5000    0.0000 C   0  0  0  0  0  0  0  0  0  0  0  0
   -6.0622    1.5000    0.0000 C   0  0  0  0  0  0  0  0  0  0  0  0
   -5.1962    2.0000    0.0000 C   0  0  0  0  0  0  0  0  0  0  0  0
   -4.3301    1.5000    0.0000 C   0  0  0  0  0  0  0  0  0  0  0  0
   -0.8660    0.5000    0.0000 C   0  0  0  0  0  0  0  0  0  0  0  0
   -0.8660    1.5000    0.0000 N   0  0  0  0  0  0  0  0  0  0  0  0
   -0.0000   -0.0000    0.0000 N   0  0  0  0  0  0  0  0  0  0  0  0
  1  2  1  0  0  0  0
  2 16  1  0  0  0  0
  2  3  2  0  0  0  0
  3  4  1  0  0  0  0
  4  5  2  0  0  0  0
  5  6  1  0  0  0  0
  5 14  1  0  0  0  0
  6  7  2  0  0  0  0
  7  8  1  0  0  0  0
  8 13  1  0  0  0  0
  8  9  2  0  0  0  0
  9 10  1  0  0  0  0
 10 11  2  0  0  0  0
 11 12  1  0  0  0  0
 12 13  2  0  0  0  0
 14 15  1  0  0  0  0
 14 16  2  0  0  0  0
M  END
$$$$

 OpenBabel10082008492D

 11 10  0  0  1  0  0  0  0  0999 V2000
    1.7321   -2.7321    0.0000 C   0  0  0  0  0  0  0  0  0  0  0  0
    1.7321   -1.7321    0.0000 C   0  0  0  0  0  0  0  0  0  0  0  0
    2.5981   -1.2321    0.0000 O   0  0  0  0  0  0  0  0  0  0  0  0
    0.8660   -1.2321    0.0000 N   0  0  0  0  0  0  0  0  0  0  0  0
    0.0000   -1.7321    0.0000 C   0  0  1  0  0  0  0  0  0  0  0  0
    0.5000   -2.5981    0.0000 H   0  0  0  0  0  0  0  0  0  0  0  0
   -0.8660   -2.2321    0.0000 C   0  0  0  0  0  0  0  0  0  0  0  0
   -0.8660   -3.2321    0.0000 S   0  0  0  0  0  0  0  0  0  0  0  0
   -0.5000   -0.8660    0.0000 C   0  0  0  0  0  0  0  0  0  0  0  0
   -1.5000   -0.8660    0.0000 O   0  0  0  0  0  0  0  0  0  0  0  0
    0.0000    0.0000    0.0000 O   0  0  0  0  0  0  0  0  0  0  0  0
  1  2  1  0  0  0  0
  2  3  2  0  0  0  0
  2  4  1  0  0  0  0
  4  5  1  0  0  0  0
  5  6  1  6  0  0  0
  5  7  1  0  0  0  0
  5  9  1  0  0  0  0
  7  8  1  0  0  0  0
  9 10  2  0  0  0  0
  9 11  1  0  0  0  0
M  END
$$$$

 OpenBabel10082008492D

 39 43  0  0  0  0  0  0  0  0999 V2000
    0.0933    1.7796    0.0000 C   0  0  0  0  0  0  0  0  0  0  0  0
    0.5000    0.8660    0.0000 C   0  0  0  0  0  0  0  0  0  0  0  0
    1.4781    0.6581    0.0000 C   0  0  0  0  0  0  0  0  0  0  0  0
    1.5827   -0.3364    0.0000 N   0  0  0  0  0  0  0  0  0  0  0  0
    2.4487   -0.8364    0.0000 C   0  0  0  0  0  0  0  0  0  0  0  0
    3.3147   -0.3364    0.0000 C   0  0  0  0  0  0  0  0  0  0  0  0
    4.1808   -0.8364    0.0000 C   0  0  0  0  0  0  0  0  0  0  0  0
    5.0468   -0.3364    0.0000 N   0  0  0  0  0  0  0  0  0  0  0  0
    5.0468    0.6636    0.0000 C   0  0  0  0  0  0  0  0  0  0  0  0
    5.9128    1.1636    0.0000 O   0  0  0  0  0  0  0  0  0  0  0  0
    4.1808    1.1636    0.0000 C   0  0  0  0  0  0  0  0  0  0  0  0
    3.3147    0.6636    0.0000 C   0  0  0  0  0  0  0  0  0  0  0  0
    2.4487    1.1636    0.0000 C   0  0  0  0  0  0  0  0  0  0  0  0
    2.4487    2.1636    0.0000 C   0  0  0  0  0  0  0  0  0  0  0  0
    1.5827    2.6636    0.0000 C   0  0  0  0  0  0  0  0  0  0  0  0
    3.3147    2.6636    0.0000 C   0  0  0  0  0  0  0  0  0  0  0  0
    3.3147    3.6636    0.0000 N   0  0  0  0  0  0  0  0  0  0  0  0
    4.1808    4.1636    0.0000 C   0  0  0  0  0  0  0  0  0  0  0  0
    4.1808    5.1636    0.0000 N   0  0  0  0  0  0  0  0  0  0  0  0
    5.0468    5.6636    0.0000 C   0  0  0  0  0  0  0  0  0  0  0  0
    5.9128    5.1636    0.0000 C   0  0  0  0  0  0  0  0  0  0  0  0
    5.9128    4.1636    0.0000 C   0  0  0  0  0  0  0  0  0  0  0  0
    6.7788    3.6636    0.0000 C   0  0  0  0  0  0  0  0  0  0  0  0
    7.6449    4.1636    0.0000 C   0  0  0  0  0  0  0  0  0  0  0  0
    8.5109    3.6636    0.0000 C   0  0  0  0  0  0  0  0  0  0  0  0
    8.5109    2.6636    0.0000 C   0  0  0  0  0  0  0  0  0  0  0  0
    7.6449    2.1636    0.0000 N   0  0  0  0  0  0  0  0  0  0  0  0
    6.7788    2.6636    0.0000 C   0  0  0  0  0  0  0  0  0  0  0  0
    5.0468    3.6636    0.0000 N   0  0  0  0  0  0  0  0  0  0  0  0
    4.1808    2.1636    0.0000 C   0  0  0  0  0  0  0  0  0  0  0  0
    4.1808   -1.8364    0.0000 C   0  0  0  0  0  0  0  0  0  0  0  0
    3.3147   -2.3364    0.0000 C   0  0  0  0  0  0  0  0  0  0  0  0
    3.3147   -3.3364    0.0000 C   0  0  0  0  0  0  0  0  0  0  0  0
    3.8147   -4.2024    0.0000 F   0  0  0  0  0  0  0  0  0  0  0  0
    4.3147   -3.3364    0.0000 F   0  0  0  0  0  0  0  0  0  0  0  0
    2.4487   -3.8364    0.0000 F   0  0  0  0  0  0  0  0  0  0  0  0
    2.4487   -1.8364    0.0000 C   0  0  0  0  0  0  0  0  0  0  0  0
    0.6691   -0.7431    0.0000 C   0  0  0  0  0  0  0  0  0  0  0  0
    0.0000   -0.0000    0.0000 N   0  0  0  0  0  0  0  0  0  0  0  0
  1  2  1  0  0  0  0
  2 39  1  0  0  0  0
  2  3  2  0  0  0  0
  3  4  1  0  0  0  0
  4  5  1  0  0  0  0
  4 38  1  0  0  0  0
  5 37  1  0  0  0  0
  5  6  2  0  0  0  0
  6  7  1  0  0  0  0
  7  8  1  0  0  0  0
  7 31  2  0  0  0  0
  8  9  1  0  0  0  0
  9 10  2  0  0  0  0
  9 11  1  0  0  0  0
 11 30  1  0  0  0  0
 11 12  2  0  0  0  0
 12 13  1  0  0  0  0
 13 14  2  0  0  0  0
 14 15  1  0  0  0  0
 14 16  1  0  0  0  0
 16 17  1  0  0  0  0
 16 30  2  0  0  0  0
 17 18  1  0  0  0  0
 18 29  1  0  0  0  0
 18 19  2  0  0  0  0
 19 20  1  0  0  0  0
 20 21  2  0  0  0  0
 21 22  1  0  0  0  0
 22 23  1  0  0  0  0
 22 29  2  0  0  0  0
 23 28  1  0  0  0  0
 23 24  2  0  0  0  0
 24 25  1  0  0  0  0
 25 26  2  0  0  0  0
 26 27  1  0  0  0  0
 27 28  2  0  0  0  0
 31 32  1  0  0  0  0
 32 33  1  0  0  0  0
 32 37  2  0  0  0  0
 33 34  1  0  0  0  0
 33 35  1  0  0  0  0
 33 36  1  0  0  0  0
 38 39  2  0  0  0  0
M  END
$$$$

 OpenBabel10082008492D

 23 26  0  0  0  0  0  0  0  0999 V2000
   -1.1781    1.2697    0.0000 C   0  0  0  0  0  0  0  0  0  0  0  0
   -0.2225    0.9749    0.0000 N   0  0  0  0  0  0  0  0  0  0  0  0
    0.5105    1.6551    0.0000 C   0  0  0  0  0  0  0  0  0  0  0  0
    1.4661    1.3603    0.0000 C   0  0  0  0  0  0  0  0  0  0  0  0
    1.6886    0.3854    0.0000 N   0  0  0  0  0  0  0  0  0  0  0  0
    2.6442    0.0907    0.0000 C   0  0  0  0  0  0  0  0  0  0  0  0
    3.3244    0.8237    0.0000 N   0  0  0  0  0  0  0  0  0  0  0  0
    4.3216    0.7490    0.0000 C   0  0  0  0  0  0  0  0  0  0  0  0
    4.7555    1.6500    0.0000 C   0  0  0  0  0  0  0  0  0  0  0  0
    5.7527    1.7247    0.0000 C   0  0  0  0  0  0  0  0  0  0  0  0
    6.1865    2.6257    0.0000 Cl  0  0  0  0  0  0  0  0  0  0  0  0
    6.3160    0.8984    0.0000 C   0  0  0  0  0  0  0  0  0  0  0  0
    5.8821   -0.0025    0.0000 C   0  0  0  0  0  0  0  0  0  0  0  0
    4.8849   -0.0773    0.0000 C   0  0  0  0  0  0  0  0  0  0  0  0
    4.5901   -1.0328    0.0000 N   0  0  0  0  0  0  0  0  0  0  0  0
    3.6593   -1.3982    0.0000 C   0  0  0  0  0  0  0  0  0  0  0  0
    3.6593   -2.3982    0.0000 C   0  0  0  0  0  0  0  0  0  0  0  0
    2.7932   -2.8982    0.0000 C   0  0  0  0  0  0  0  0  0  0  0  0
    1.9272   -2.3982    0.0000 C   0  0  0  0  0  0  0  0  0  0  0  0
    1.9272   -1.3982    0.0000 C   0  0  0  0  0  0  0  0  0  0  0  0
    2.7932   -0.8982    0.0000 C   0  0  0  0  0  0  0  0  0  0  0  0
    0.9556   -0.2948    0.0000 C   0  0  0  0  0  0  0  0  0  0  0  0
    0.0000   -0.0000    0.0000 C   0  0  0  0  0  0  0  0  0  0  0  0
  1  2  1  0  0  0  0
  2 23  1  0  0  0  0
  2  3  1  0  0  0  0
  3  4  1  0  0  0  0
  4  5  1  0  0  0  0
  5  6  1  0  0  0  0
  5 22  1  0  0  0  0
  6 21  1  0  0  0  0
  6  7  2  0  0  0  0
  7  8  1  0  0  0  0
  8 14  1  0  0  0  0
  8  9  2  0  0  0  0
  9 10  1  0  0  0  0
 10 11  1  0  0  0  0
 10 12  2  0  0  0  0
 12 13  1  0  0  0  0
 13 14  2  0  0  0  0
 14 15  1  0  0  0  0
 15 16  1  0  0  0  0
 16 21  1  0  0  0  0
 16 17  2  0  0  0  0
 17 18  1  0  0  0  0
 18 19  2  0  0  0  0
 19 20  1  0  0  0  0
 20 21  2  0  0  0  0
 22 23  1  0  0  0  0
M  END
$$$$

 OpenBabel10082008492D

 18 19  0  0  1  0  0  0  0  0999 V2000
    1.7321   -0.0000    0.0000 Cl  0  0  0  0  0  0  0  0  0  0  0  0
    0.8660   -0.5000    0.0000 C   0  0  0  0  0  0  0  0  0  0  0  0
    0.8660   -1.5000    0.0000 C   0  0  0  0  0  0  0  0  0  0  0  0
    0.0000   -2.0000    0.0000 C   0  0  0  0  0  0  0  0  0  0  0  0
   -0.8660   -1.5000    0.0000 C   0  0  0  0  0  0  0  0  0  0  0  0
   -1.7321   -2.0000    0.0000 C   0  0  3  0  0  0  0  0  0  0  0  0
   -2.5981   -1.5000    0.0000 C   0  0  0  0  0  0  0  0  0  0  0  0
   -3.4641   -2.0000    0.0000 C   0  0  0  0  0  0  0  0  0  0  0  0
   -4.3301   -1.5000    0.0000 C   0  0  0  0  0  0  0  0  0  0  0  0
   -4.3301   -0.5000    0.0000 C   0  0  0  0  0  0  0  0  0  0  0  0
   -3.4641    0.0000    0.0000 C   0  0  0  0  0  0  0  0  0  0  0  0
   -2.5981   -0.5000    0.0000 C   0  0  0  0  0  0  0  0  0  0  0  0
   -1.7321    0.0000    0.0000 Cl  0  0  0  0  0  0  0  0  0  0  0  0
   -1.7321   -3.0000    0.0000 C   0  0  0  0  0  0  0  0  0  0  0  0
   -2.5981   -3.5000    0.0000 Cl  0  0  0  0  0  0  0  0  0  0  0  0
   -0.8660   -3.5000    0.0000 Cl  0  0  0  0  0  0  0  0  0  0  0  0
   -0.8660   -0.5000    0.0000 C   0  0  0  0  0  0  0  0  0  0  0  0
    0.0000   -0.0000    0.0000 C   0  0  0  0  0  0  0  0  0  0  0  0
  1  2  1  0  0  0  0
  2 18  1  0  0  0  0
  2  3  2  0  0  0  0
  3  4  1  0  0  0  0
  4  5  2  0  0  0  0
  5  6  1  0  0  0  0
  5 17  1  0  0  0  0
  6  7  1  0  0  0  0
  6 14  1  0  0  0  0
  7 12  1  0  0  0  0
  7  8  2  0  0  0  0
  8  9  1  0  0  0  0
  9 10  2  0  0  0  0
 10 11  1  0  0  0  0
 11 12  2  0  0  0  0
 12 13  1  0  0  0  0
 14 15  1  0  0  0  0
 14 16  1  0  0  0  0
 17 18  2  0  0  0  0
M  END
$$$$

 OpenBabel10082008492D

 21 23  0  0  0  0  0  0  0  0999 V2000
    2.5494    0.6025    0.0000 C   0  0  0  0  0  0  0  0  0  0  0  0
    1.5522    0.6772    0.0000 N   0  0  0  0  0  0  0  0  0  0  0  0
    0.9888   -0.1490    0.0000 C   0  0  0  0  0  0  0  0  0  0  0  0
    1.4888   -1.0151    0.0000 N   0  0  0  0  0  0  0  0  0  0  0  0
    1.1235   -1.9459    0.0000 C   0  0  0  0  0  0  0  0  0  0  0  0
    1.8565   -2.6261    0.0000 C   0  0  0  0  0  0  0  0  0  0  0  0
    1.6340   -3.6010    0.0000 C   0  0  0  0  0  0  0  0  0  0  0  0
    0.6784   -3.8958    0.0000 C   0  0  0  0  0  0  0  0  0  0  0  0
    0.4559   -4.8707    0.0000 Cl  0  0  0  0  0  0  0  0  0  0  0  0
   -0.0546   -3.2156    0.0000 C   0  0  0  0  0  0  0  0  0  0  0  0
    0.1679   -2.2407    0.0000 C   0  0  0  0  0  0  0  0  0  0  0  0
   -0.6583   -1.6774    0.0000 C   0  0  0  0  0  0  0  0  0  0  0  0
   -1.5243   -2.1774    0.0000 C   0  0  0  0  0  0  0  0  0  0  0  0
   -1.5243   -3.1774    0.0000 C   0  0  0  0  0  0  0  0  0  0  0  0
   -2.3904   -3.6774    0.0000 C   0  0  0  0  0  0  0  0  0  0  0  0
   -3.2564   -3.1774    0.0000 C   0  0  0  0  0  0  0  0  0  0  0  0
   -3.2564   -2.1774    0.0000 C   0  0  0  0  0  0  0  0  0  0  0  0
   -2.3904   -1.6774    0.0000 C   0  0  0  0  0  0  0  0  0  0  0  0
   -0.7331   -0.6802    0.0000 N   0  3  0  0  0  0  0  0  0  0  0  0
   -1.6639   -0.3148    0.0000 O   0  5  0  0  0  0  0  0  0  0  0  0
    0.0000   -0.0000    0.0000 C   0  0  0  0  0  0  0  0  0  0  0  0
  1  2  1  0  0  0  0
  2  3  1  0  0  0  0
  3 21  1  0  0  0  0
  3  4  2  0  0  0  0
  4  5  1  0  0  0  0
  5 11  1  0  0  0  0
  5  6  2  0  0  0  0
  6  7  1  0  0  0  0
  7  8  2  0  0  0  0
  8  9  1  0  0  0  0
  8 10  1  0  0  0  0
 10 11  2  0  0  0  0
 11 12  1  0  0  0  0
 12 13  1  0  0  0  0
 12 19  2  0  0  0  0
 13 18  1  0  0  0  0
 13 14  2  0  0  0  0
 14 15  1  0  0  0  0
 15 16  2  0  0  0  0
 16 17  1  0  0  0  0
 17 18  2  0  0  0  0
 19 20  1  0  0  0  0
 19 21  1  0  0  0  0
M  CHG  2  19   1  20  -1
M  END
$$$$

 OpenBabel10082008492D

 33 36  0  0  1  0  0  0  0  0999 V2000
   -5.1962    2.0000    0.0000 O   0  0  0  0  0  0  0  0  0  0  0  0
   -4.3301    1.5000    0.0000 C   0  0  0  0  0  0  0  0  0  0  0  0
   -4.3301    0.5000    0.0000 O   0  0  0  0  0  0  0  0  0  0  0  0
   -3.4641    2.0000    0.0000 C   0  0  0  0  0  0  0  0  0  0  0  0
   -2.5981    1.5000    0.0000 C   0  0  2  0  0  0  0  0  0  0  0  0
   -3.0981    0.6340    0.0000 H   0  0  0  0  0  0  0  0  0  0  0  0
   -2.0981    0.6340    0.0000 O   0  0  0  0  0  0  0  0  0  0  0  0
   -1.7321    2.0000    0.0000 C   0  0  0  0  0  0  0  0  0  0  0  0
   -0.8660    1.5000    0.0000 C   0  0  2  0  0  0  0  0  0  0  0  0
   -0.3660    2.3660    0.0000 H   0  0  0  0  0  0  0  0  0  0  0  0
    0.1340    1.5000    0.0000 O   0  0  0  0  0  0  0  0  0  0  0  0
   -0.8660    0.5000    0.0000 C   0  0  0  0  0  0  0  0  0  0  0  0
   -1.7321    0.0000    0.0000 C   0  0  0  0  0  0  0  0  0  0  0  0
   -1.7321   -1.0000    0.0000 C   0  0  0  0  0  0  0  0  0  0  0  0
   -2.5981   -1.5000    0.0000 C   0  0  0  0  0  0  0  0  0  0  0  0
   -3.4641   -1.0000    0.0000 C   0  0  0  0  0  0  0  0  0  0  0  0
   -3.9641   -0.1340    0.0000 C   0  0  0  0  0  0  0  0  0  0  0  0
   -4.4641   -1.0000    0.0000 C   0  0  0  0  0  0  0  0  0  0  0  0
   -2.5981   -2.5000    0.0000 N   0  0  0  0  0  0  0  0  0  0  0  0
   -1.7321   -3.0000    0.0000 C   0  0  0  0  0  0  0  0  0  0  0  0
   -1.7321   -4.0000    0.0000 C   0  0  0  0  0  0  0  0  0  0  0  0
   -0.8660   -4.5000    0.0000 C   0  0  0  0  0  0  0  0  0  0  0  0
   -0.0000   -4.0000    0.0000 C   0  0  0  0  0  0  0  0  0  0  0  0
   -0.0000   -3.0000    0.0000 C   0  0  0  0  0  0  0  0  0  0  0  0
   -0.8660   -2.5000    0.0000 C   0  0  0  0  0  0  0  0  0  0  0  0
   -0.8660   -1.5000    0.0000 C   0  0  0  0  0  0  0  0  0  0  0  0
   -0.0000   -1.0000    0.0000 C   0  0  0  0  0  0  0  0  0  0  0  0
    0.8660   -1.5000    0.0000 C   0  0  0  0  0  0  0  0  0  0  0  0
    1.7321   -1.0000    0.0000 C   0  0  0  0  0  0  0  0  0  0  0  0
    1.7321   -0.0000    0.0000 C   0  0  0  0  0  0  0  0  0  0  0  0
    2.5981    0.5000    0.0000 F   0  0  0  0  0  0  0  0  0  0  0  0
    0.8660    0.5000    0.0000 C   0  0  0  0  0  0  0  0  0  0  0  0
   -0.0000   -0.0000    0.0000 C   0  0  0  0  0  0  0  0  0  0  0  0
  1  2  2  0  0  0  0
  2  3  1  0  0  0  0
  2  4  1  0  0  0  0
  4  5  1  0  0  0  0
  5  6  1  6  0  0  0
  5  7  1  0  0  0  0
  5  8  1  0  0  0  0
  8  9  1  0  0  0  0
  9 10  1  1  0  0  0
  9 11  1  0  0  0  0
  9 12  1  0  0  0  0
 12 13  2  0  0  0  0
 13 14  1  0  0  0  0
 14 26  1  0  0  0  0
 14 15  2  0  0  0  0
 15 16  1  0  0  0  0
 15 19  1  0  0  0  0
 16 18  1  0  0  0  0
 16 17  1  0  0  0  0
 17 18  1  0  0  0  0
 19 20  2  0  0  0  0
 20 25  1  0  0  0  0
 20 21  1  0  0  0  0
 21 22  2  0  0  0  0
 22 23  1  0  0  0  0
 23 24  2  0  0  0  0
 24 25  1  0  0  0  0
 25 26  2  0  0  0  0
 26 27  1  0  0  0  0
 27 33  1  0  0  0  0
 27 28  2  0  0  0  0
 28 29  1  0  0  0  0
 29 30  2  0  0  0  0
 30 31  1  0  0  0  0
 30 32  1  0  0  0  0
 32 33  2  0  0  0  0
M  END
$$$$

 OpenBabel10082008492D

 12 11  0  0  1  0  0  0  0  0999 V2000
    1.8660    0.7679    0.0000 C   0  0  0  0  0  0  0  0  0  0  0  0
    2.3660    1.6340    0.0000 C   0  0  0  0  0  0  0  0  0  0  0  0
    3.3660    1.6340    0.0000 C   0  0  0  0  0  0  0  0  0  0  0  0
    1.8660    2.5000    0.0000 C   0  0  0  0  0  0  0  0  0  0  0  0
    0.8660    2.5000    0.0000 C   0  0  2  0  0  0  0  0  0  0  0  0
    0.8660    3.5000    0.0000 H   0  0  0  0  0  0  0  0  0  0  0  0
   -0.1340    2.5000    0.0000 C   0  0  0  0  0  0  0  0  0  0  0  0
   -0.6340    3.3660    0.0000 N   0  0  0  0  0  0  0  0  0  0  0  0
    0.8660    1.5000    0.0000 C   0  0  0  0  0  0  0  0  0  0  0  0
   -0.0000    1.0000    0.0000 C   0  0  0  0  0  0  0  0  0  0  0  0
   -0.8660    1.5000    0.0000 O   0  0  0  0  0  0  0  0  0  0  0  0
    0.0000    0.0000    0.0000 O   0  0  0  0  0  0  0  0  0  0  0  0
  1  2  1  0  0  0  0
  2  3  1  0  0  0  0
  2  4  1  0  0  0  0
  4  5  1  0  0  0  0
  5  6  1  6  0  0  0
  5  7  1  0  0  0  0
  5  9  1  0  0  0  0
  7  8  1  0  0  0  0
  9 10  1  0  0  0  0
 10 11  2  0  0  0  0
 10 12  1  0  0  0  0
M  END
$$$$

 OpenBabel10082008492D

 26 29  0  0  1  0  0  0  0  0999 V2000
   -0.4190   -1.2115    0.0000 C   0  0  0  0  0  0  0  0  0  0  0  0
    0.5810   -1.2115    0.0000 N   0  0  0  0  0  0  0  0  0  0  0  0
    1.1687   -2.0206    0.0000 C   0  0  1  0  0  0  0  0  0  0  0  0
    1.4249   -2.9872    0.0000 H   0  0  0  0  0  0  0  0  0  0  0  0
    2.1198   -1.7115    0.0000 C   0  0  0  0  0  0  0  0  0  0  0  0
    2.1198   -0.7115    0.0000 C   0  0  0  0  0  0  0  0  0  0  0  0
    1.1687   -0.4025    0.0000 C   0  0  2  0  0  0  0  0  0  0  0  0
    1.4249    0.5641    0.0000 H   0  0  0  0  0  0  0  0  0  0  0  0
    0.4667   -0.5628    0.0000 C   0  0  0  0  0  0  0  0  0  0  0  0
    0.1543   -1.2115    0.0000 C   0  0  2  0  0  0  0  0  0  0  0  0
   -0.7118   -1.7115    0.0000 H   0  0  0  0  0  0  0  0  0  0  0  0
   -1.6652   -0.9614    0.0000 O   0  0  0  0  0  0  0  0  0  0  0  0
   -1.6652    0.0000    0.0000 C   0  0  0  0  0  0  0  0  0  0  0  0
   -0.8326    0.4807    0.0000 C   0  0  0  0  0  0  0  0  0  0  0  0
   -0.8326    1.4421    0.0000 C   0  0  0  0  0  0  0  0  0  0  0  0
    0.0000    1.9228    0.0000 C   0  0  0  0  0  0  0  0  0  0  0  0
    0.8326    1.4421    0.0000 C   0  0  0  0  0  0  0  0  0  0  0  0
    0.8326    0.4807    0.0000 C   0  0  0  0  0  0  0  0  0  0  0  0
   -0.0000   -0.0000    0.0000 C   0  0  0  0  0  0  0  0  0  0  0  0
   -2.4978    0.4807    0.0000 C   0  0  0  0  0  0  0  0  0  0  0  0
   -3.3304    0.0000    0.0000 C   0  0  0  0  0  0  0  0  0  0  0  0
   -4.1629    0.4807    0.0000 C   0  0  0  0  0  0  0  0  0  0  0  0
   -4.1629    1.4421    0.0000 C   0  0  0  0  0  0  0  0  0  0  0  0
   -3.3304    1.9228    0.0000 C   0  0  0  0  0  0  0  0  0  0  0  0
   -2.4978    1.4421    0.0000 C   0  0  0  0  0  0  0  0  0  0  0  0
    0.4667   -1.8603    0.0000 C   0  0  0  0  0  0  0  0  0  0  0  0
  1  2  1  0  0  0  0
  2  7  1  0  0  0  0
  2  3  1  0  0  0  0
  3  4  1  6  0  0  0
  3 26  1  0  0  0  0
  3  5  1  0  0  0  0
  5  6  1  0  0  0  0
  6  7  1  0  0  0  0
  7  8  1  6  0  0  0
  7  9  1  0  0  0  0
  9 10  1  0  0  0  0
 10 11  1  6  0  0  0
 10 12  1  0  0  0  0
 10 26  1  0  0  0  0
 12 13  1  0  0  0  0
 13 14  1  0  0  0  0
 13 20  1  0  0  0  0
 14 19  1  0  0  0  0
 14 15  2  0  0  0  0
 15 16  1  0  0  0  0
 16 17  2  0  0  0  0
 17 18  1  0  0  0  0
 18 19  2  0  0  0  0
 20 25  1  0  0  0  0
 20 21  2  0  0  0  0
 21 22  1  0  0  0  0
 22 23  2  0  0  0  0
 23 24  1  0  0  0  0
 24 25  2  0  0  0  0
M  END
$$$$

 OpenBabel10082008492D

 10  9  0  0  0  0  0  0  0  0999 V2000
    4.3301    0.5000    0.0000 C   0  0  0  0  0  0  0  0  0  0  0  0
    4.3301    1.5000    0.0000 O   0  0  0  0  0  0  0  0  0  0  0  0
    3.4641    2.0000    0.0000 C   0  0  0  0  0  0  0  0  0  0  0  0
    3.4641    3.0000    0.0000 O   0  0  0  0  0  0  0  0  0  0  0  0
    2.5981    1.5000    0.0000 C   0  0  0  0  0  0  0  0  0  0  0  0
    1.7321    2.0000    0.0000 C   0  0  0  0  0  0  0  0  0  0  0  0
    0.8660    1.5000    0.0000 C   0  0  0  0  0  0  0  0  0  0  0  0
    0.0000    2.0000    0.0000 O   0  0  0  0  0  0  0  0  0  0  0  0
    0.8660    0.5000    0.0000 O   0  0  0  0  0  0  0  0  0  0  0  0
    0.0000    0.0000    0.0000 C   0  0  0  0  0  0  0  0  0  0  0  0
  1  2  1  0  0  0  0
  2  3  1  0  0  0  0
  3  4  2  0  0  0  0
  3  5  1  0  0  0  0
  5  6  2  0  0  0  0
  6  7  1  0  0  0  0
  7  8  2  0  0  0  0
  7  9  1  0  0  0  0
  9 10  1  0  0  0  0
M  END
$$$$

 OpenBabel10082008492D

  8  7  0  0  0  0  0  0  0  0999 V2000
    1.0000   -1.0000    0.0000 C   0  0  0  0  0  0  0  0  0  0  0  0
    1.0000   -0.0000    0.0000 N   0  3  0  0  0  0  0  0  0  0  0  0
    2.0000    0.0000    0.0000 C   0  0  0  0  0  0  0  0  0  0  0  0
    1.0000    1.0000    0.0000 C   0  0  0  0  0  0  0  0  0  0  0  0
    0.0000    0.0000    0.0000 C   0  0  0  0  0  0  0  0  0  0  0  0
   -0.5000    0.8660    0.0000 C   0  0  0  0  0  0  0  0  0  0  0  0
   -0.0000    1.7321    0.0000 O   0  0  0  0  0  0  0  0  0  0  0  0
   -1.5000    0.8660    0.0000 O   0  0  0  0  0  0  0  0  0  0  0  0
  1  2  1  0  0  0  0
  2  3  1  0  0  0  0
  2  4  1  0  0  0  0
  2  5  1  0  0  0  0
  5  6  1  0  0  0  0
  6  7  2  0  0  0  0
  6  8  1  0  0  0  0
M  CHG  1   2   1
M  END
$$$$

 OpenBabel10082008492D

 10 10  0  0  0  0  0  0  0  0999 V2000
    0.2788   -1.7601    0.0000 C   0  0  0  0  0  0  0  0  0  0  0  0
   -0.3090   -0.9511    0.0000 N   0  0  0  0  0  0  0  0  0  0  0  0
   -1.3090   -0.9511    0.0000 C   0  0  0  0  0  0  0  0  0  0  0  0
   -1.8968   -1.7601    0.0000 O   0  0  0  0  0  0  0  0  0  0  0  0
   -1.6180   -0.0000    0.0000 O   0  0  0  0  0  0  0  0  0  0  0  0
   -0.8090    0.5878    0.0000 C   0  0  0  0  0  0  0  0  0  0  0  0
   -0.3090    1.4538    0.0000 C   0  0  0  0  0  0  0  0  0  0  0  0
   -1.3090    1.4538    0.0000 C   0  0  0  0  0  0  0  0  0  0  0  0
   -0.0000   -0.0000    0.0000 C   0  0  0  0  0  0  0  0  0  0  0  0
    0.9511    0.3090    0.0000 O   0  0  0  0  0  0  0  0  0  0  0  0
  1  2  1  0  0  0  0
  2  9  1  0  0  0  0
  2  3  1  0  0  0  0
  3  4  2  0  0  0  0
  3  5  1  0  0  0  0
  5  6  1  0  0  0  0
  6  7  1  0  0  0  0
  6  8  1  0  0  0  0
  6  9  1  0  0  0  0
  9 10  2  0  0  0  0
M  END
$$$$

 OpenBabel10082008492D

 17 18  0  0  0  0  0  0  0  0999 V2000
    1.0000   -1.0000    0.0000 N   0  0  0  0  0  0  0  0  0  0  0  0
    1.0000   -0.0000    0.0000 S   0  0  0  0  0  0  0  0  0  0  0  0
    2.0000    0.0000    0.0000 O   0  0  0  0  0  0  0  0  0  0  0  0
    1.0000    1.0000    0.0000 O   0  0  0  0  0  0  0  0  0  0  0  0
    0.0000    0.0000    0.0000 C   0  0  0  0  0  0  0  0  0  0  0  0
   -0.5000   -0.8660    0.0000 C   0  0  0  0  0  0  0  0  0  0  0  0
   -1.5000   -0.8660    0.0000 C   0  0  0  0  0  0  0  0  0  0  0  0
   -2.0000   -0.0000    0.0000 C   0  0  0  0  0  0  0  0  0  0  0  0
   -1.5000    0.8660    0.0000 C   0  0  0  0  0  0  0  0  0  0  0  0
   -0.5000    0.8660    0.0000 C   0  0  0  0  0  0  0  0  0  0  0  0
   -0.0000    1.7321    0.0000 Cl  0  0  0  0  0  0  0  0  0  0  0  0
   -3.0000   -0.0000    0.0000 N   0  0  0  0  0  0  0  0  0  0  0  0
   -3.5000   -0.8660    0.0000 C   0  0  0  0  0  0  0  0  0  0  0  0
   -3.0000   -1.7321    0.0000 N   0  0  0  0  0  0  0  0  0  0  0  0
   -2.0000   -1.7321    0.0000 S   0  0  0  0  0  0  0  0  0  0  0  0
   -2.0000   -2.7321    0.0000 O   0  0  0  0  0  0  0  0  0  0  0  0
   -1.1340   -2.2321    0.0000 O   0  0  0  0  0  0  0  0  0  0  0  0
  1  2  1  0  0  0  0
  2  3  2  0  0  0  0
  2  4  2  0  0  0  0
  2  5  1  0  0  0  0
  5 10  1  0  0  0  0
  5  6  2  0  0  0  0
  6  7  1  0  0  0  0
  7 15  1  0  0  0  0
  7  8  2  0  0  0  0
  8  9  1  0  0  0  0
  8 12  1  0  0  0  0
  9 10  2  0  0  0  0
 10 11  1  0  0  0  0
 12 13  1  0  0  0  0
 13 14  1  0  0  0  0
 14 15  1  0  0  0  0
 15 16  2  0  0  0  0
 15 17  2  0  0  0  0
M  END
$$$$

 OpenBabel10082008492D

 29 33  0  0  1  0  0  0  0  0999 V2000
    2.4429   -0.4865    0.0000 O   0  0  0  0  0  0  0  0  0  0  0  0
    1.5855   -0.9815    0.0000 C   0  0  0  0  0  0  0  0  0  0  0  0
    0.7281   -0.4865    0.0000 O   0  0  0  0  0  0  0  0  0  0  0  0
   -0.1292   -0.9815    0.0000 C   0  0  1  0  0  0  0  0  0  0  0  0
    0.0000   -1.9631    0.0000 H   0  0  0  0  0  0  0  0  0  0  0  0
    0.0000    0.0000    0.0000 C   0  0  0  0  0  0  0  0  0  0  0  0
   -0.7854    0.6027    0.0000 N   0  0  3  0  0  0  0  0  0  0  0  0
   -1.7001    0.2238    0.0000 C   0  0  0  0  0  0  0  0  0  0  0  0
   -1.8293   -0.7577    0.0000 C   0  0  0  0  0  0  0  0  0  0  0  0
   -1.0439   -1.3604    0.0000 C   0  0  3  0  0  0  0  0  0  0  0  0
   -0.1292   -0.9815    0.0000 C   0  0  0  0  0  0  0  0  0  0  0  0
    0.0000    0.0000    0.0000 C   0  0  0  0  0  0  0  0  0  0  0  0
    1.5855   -1.9715    0.0000 N   0  0  0  0  0  0  0  0  0  0  0  0
    0.7281   -2.4665    0.0000 C   0  0  0  0  0  0  0  0  0  0  0  0
    0.7281   -3.4566    0.0000 C   0  0  0  0  0  0  0  0  0  0  0  0
    1.5855   -3.9516    0.0000 C   0  0  0  0  0  0  0  0  0  0  0  0
    1.5855   -4.9416    0.0000 C   0  0  0  0  0  0  0  0  0  0  0  0
    2.4429   -5.4366    0.0000 C   0  0  0  0  0  0  0  0  0  0  0  0
    3.3003   -4.9416    0.0000 C   0  0  0  0  0  0  0  0  0  0  0  0
    3.3003   -3.9516    0.0000 C   0  0  0  0  0  0  0  0  0  0  0  0
    2.4429   -3.4566    0.0000 C   0  0  0  0  0  0  0  0  0  0  0  0
    2.4429   -2.4665    0.0000 C   0  0  2  0  0  0  0  0  0  0  0  0
    2.9379   -1.6092    0.0000 H   0  0  0  0  0  0  0  0  0  0  0  0
    3.4329   -2.4665    0.0000 C   0  0  0  0  0  0  0  0  0  0  0  0
    3.9279   -3.3239    0.0000 C   0  0  0  0  0  0  0  0  0  0  0  0
    4.9179   -3.3239    0.0000 C   0  0  0  0  0  0  0  0  0  0  0  0
    5.4129   -2.4665    0.0000 C   0  0  0  0  0  0  0  0  0  0  0  0
    4.9179   -1.6092    0.0000 C   0  0  0  0  0  0  0  0  0  0  0  0
    3.9279   -1.6092    0.0000 C   0  0  0  0  0  0  0  0  0  0  0  0
  1  2  2  0  0  0  0
  2  3  1  0  0  0  0
  2 13  1  0  0  0  0
  3  4  1  0  0  0  0
  4  5  1  1  0  0  0
  4 10  1  0  0  0  0
  4  6  1  0  0  0  0
  6  7  1  0  0  0  0
  7 12  1  0  0  0  0
  7  8  1  0  0  0  0
  8  9  1  0  0  0  0
  9 10  1  0  0  0  0
 10 11  1  0  0  0  0
 11 12  1  0  0  0  0
 13 22  1  0  0  0  0
 13 14  1  0  0  0  0
 14 15  1  0  0  0  0
 15 16  1  0  0  0  0
 16 21  1  0  0  0  0
 16 17  2  0  0  0  0
 17 18  1  0  0  0  0
 18 19  2  0  0  0  0
 19 20  1  0  0  0  0
 20 21  2  0  0  0  0
 21 22  1  0  0  0  0
 22 23  1  6  0  0  0
 22 24  1  0  0  0  0
 24 29  1  0  0  0  0
 24 25  2  0  0  0  0
 25 26  1  0  0  0  0
 26 27  2  0  0  0  0
 27 28  1  0  0  0  0
 28 29  2  0  0  0  0
M  END
$$$$

 OpenBabel10082008492D

 25 27  0  0  0  0  0  0  0  0999 V2000
    0.1340   -1.5000    0.0000 C   0  0  0  0  0  0  0  0  0  0  0  0
    1.0000   -1.0000    0.0000 C   0  0  0  0  0  0  0  0  0  0  0  0
    1.0000   -0.0000    0.0000 N   0  3  0  0  0  0  0  0  0  0  0  0
    2.0000   -0.0000    0.0000 C   0  0  0  0  0  0  0  0  0  0  0  0
    1.0000    1.0000    0.0000 C   0  0  0  0  0  0  0  0  0  0  0  0
    0.1340    1.5000    0.0000 C   0  0  0  0  0  0  0  0  0  0  0  0
    0.0000    0.0000    0.0000 C   0  0  0  0  0  0  0  0  0  0  0  0
   -0.5000    0.8660    0.0000 C   0  0  0  0  0  0  0  0  0  0  0  0
   -1.5000    0.8660    0.0000 O   0  0  0  0  0  0  0  0  0  0  0  0
   -2.0000    1.7321    0.0000 C   0  0  0  0  0  0  0  0  0  0  0  0
   -1.5000    2.5981    0.0000 O   0  0  0  0  0  0  0  0  0  0  0  0
   -3.0000    1.7321    0.0000 C   0  0  0  0  0  0  0  0  0  0  0  0
   -3.5000    0.8660    0.0000 C   0  0  0  0  0  0  0  0  0  0  0  0
   -3.0000    0.0000    0.0000 C   0  0  0  0  0  0  0  0  0  0  0  0
   -3.5000   -0.8660    0.0000 C   0  0  0  0  0  0  0  0  0  0  0  0
   -4.5000   -0.8660    0.0000 C   0  0  0  0  0  0  0  0  0  0  0  0
   -5.0000    0.0000    0.0000 C   0  0  0  0  0  0  0  0  0  0  0  0
   -4.5000    0.8660    0.0000 C   0  0  0  0  0  0  0  0  0  0  0  0
   -5.0000    1.7321    0.0000 O   0  0  0  0  0  0  0  0  0  0  0  0
   -4.5000    2.5981    0.0000 C   0  0  0  0  0  0  0  0  0  0  0  0
   -5.0000    3.4641    0.0000 C   0  0  0  0  0  0  0  0  0  0  0  0
   -4.5000    4.3301    0.0000 C   0  0  0  0  0  0  0  0  0  0  0  0
   -3.5000    4.3301    0.0000 C   0  0  0  0  0  0  0  0  0  0  0  0
   -3.0000    3.4641    0.0000 C   0  0  0  0  0  0  0  0  0  0  0  0
   -3.5000    2.5981    0.0000 C   0  0  0  0  0  0  0  0  0  0  0  0
  1  2  1  0  0  0  0
  2  3  1  0  0  0  0
  3  4  1  0  0  0  0
  3  5  1  0  0  0  0
  3  7  1  0  0  0  0
  5  6  1  0  0  0  0
  7  8  1  0  0  0  0
  8  9  1  0  0  0  0
  9 10  1  0  0  0  0
 10 11  2  0  0  0  0
 10 12  1  0  0  0  0
 12 25  1  0  0  0  0
 12 13  1  0  0  0  0
 13 18  1  0  0  0  0
 13 14  2  0  0  0  0
 14 15  1  0  0  0  0
 15 16  2  0  0  0  0
 16 17  1  0  0  0  0
 17 18  2  0  0  0  0
 18 19  1  0  0  0  0
 19 20  1  0  0  0  0
 20 25  1  0  0  0  0
 20 21  2  0  0  0  0
 21 22  1  0  0  0  0
 22 23  2  0  0  0  0
 23 24  1  0  0  0  0
 24 25  2  0  0  0  0
M  CHG  1   3   1
M  END
$$$$

 OpenBabel10082008492D

 35 39  0  0  0  0  0  0  0  0999 V2000
    1.0934    1.6637    0.0000 O   0  0  0  0  0  0  0  0  0  0  0  0
    1.8366    0.9945    0.0000 C   0  0  0  0  0  0  0  0  0  0  0  0
    2.8147    1.2024    0.0000 N   0  0  0  0  0  0  0  0  0  0  0  0
    3.2215    2.1160    0.0000 H   0  0  0  0  0  0  0  0  0  0  0  0
    3.3147    0.3364    0.0000 C   0  0  0  0  0  0  0  0  0  0  0  0
    4.2929    0.1285    0.0000 C   0  0  0  0  0  0  0  0  0  0  0  0
    4.6019   -0.8226    0.0000 C   0  0  0  0  0  0  0  0  0  0  0  0
    3.9328   -1.5657    0.0000 C   0  0  0  0  0  0  0  0  0  0  0  0
    2.9546   -1.3578    0.0000 C   0  0  0  0  0  0  0  0  0  0  0  0
    2.6456   -0.4067    0.0000 C   0  0  0  0  0  0  0  0  0  0  0  0
    1.7321   -0.0000    0.0000 N   0  0  0  0  0  0  0  0  0  0  0  0
    0.8660   -0.5000    0.0000 C   0  0  0  0  0  0  0  0  0  0  0  0
    0.8660   -1.5000    0.0000 C   0  0  0  0  0  0  0  0  0  0  0  0
    0.0000   -2.0000    0.0000 C   0  0  0  0  0  0  0  0  0  0  0  0
   -0.8660   -1.5000    0.0000 N   0  0  0  0  0  0  0  0  0  0  0  0
   -1.7321   -2.0000    0.0000 C   0  0  0  0  0  0  0  0  0  0  0  0
   -2.5981   -1.5000    0.0000 C   0  0  0  0  0  0  0  0  0  0  0  0
   -3.4641   -2.0000    0.0000 C   0  0  0  0  0  0  0  0  0  0  0  0
   -3.4641   -3.0000    0.0000 C   0  0  0  0  0  0  0  0  0  0  0  0
   -2.5981   -3.5000    0.0000 C   0  0  0  0  0  0  0  0  0  0  0  0
   -2.5981   -4.5000    0.0000 C   0  0  0  0  0  0  0  0  0  0  0  0
   -1.7321   -5.0000    0.0000 C   0  0  0  0  0  0  0  0  0  0  0  0
   -0.8660   -4.5000    0.0000 C   0  0  0  0  0  0  0  0  0  0  0  0
   -0.0000   -5.0000    0.0000 F   0  0  0  0  0  0  0  0  0  0  0  0
   -0.8660   -3.5000    0.0000 C   0  0  0  0  0  0  0  0  0  0  0  0
   -1.7321   -3.0000    0.0000 C   0  0  0  0  0  0  0  0  0  0  0  0
   -4.3301   -3.5000    0.0000 C   0  0  0  0  0  0  0  0  0  0  0  0
   -5.1962   -3.0000    0.0000 C   0  0  0  0  0  0  0  0  0  0  0  0
   -6.0622   -3.5000    0.0000 C   0  0  0  0  0  0  0  0  0  0  0  0
   -6.0622   -4.5000    0.0000 C   0  0  0  0  0  0  0  0  0  0  0  0
   -6.9282   -5.0000    0.0000 F   0  0  0  0  0  0  0  0  0  0  0  0
   -5.1962   -5.0000    0.0000 C   0  0  0  0  0  0  0  0  0  0  0  0
   -4.3301   -4.5000    0.0000 C   0  0  0  0  0  0  0  0  0  0  0  0
   -0.8660   -0.5000    0.0000 C   0  0  0  0  0  0  0  0  0  0  0  0
    0.0000   -0.0000    0.0000 C   0  0  0  0  0  0  0  0  0  0  0  0
  1  2  2  0  0  0  0
  2 11  1  0  0  0  0
  2  3  1  0  0  0  0
  3  4  1  0  0  0  0
  3  5  1  0  0  0  0
  5 10  1  0  0  0  0
  5  6  2  0  0  0  0
  6  7  1  0  0  0  0
  7  8  2  0  0  0  0
  8  9  1  0  0  0  0
  9 10  2  0  0  0  0
 10 11  1  0  0  0  0
 11 12  1  0  0  0  0
 12 35  1  0  0  0  0
 12 13  1  0  0  0  0
 13 14  1  0  0  0  0
 14 15  1  0  0  0  0
 15 16  1  0  0  0  0
 15 34  1  0  0  0  0
 16 17  1  0  0  0  0
 17 18  1  0  0  0  0
 18 19  1  0  0  0  0
 19 20  1  0  0  0  0
 19 27  1  0  0  0  0
 20 26  1  0  0  0  0
 20 21  2  0  0  0  0
 21 22  1  0  0  0  0
 22 23  2  0  0  0  0
 23 24  1  0  0  0  0
 23 25  1  0  0  0  0
 25 26  2  0  0  0  0
 27 33  1  0  0  0  0
 27 28  2  0  0  0  0
 28 29  1  0  0  0  0
 29 30  2  0  0  0  0
 30 31  1  0  0  0  0
 30 32  1  0  0  0  0
 32 33  2  0  0  0  0
 34 35  1  0  0  0  0
M  END
$$$$

 OpenBabel10082008492D

 25 27  0  0  0  0  0  0  0  0999 V2000
    7.1152   -0.2127    0.0000 C   0  0  0  0  0  0  0  0  0  0  0  0
    6.4461    0.5305    0.0000 O   0  0  0  0  0  0  0  0  0  0  0  0
    5.4679    0.3226    0.0000 C   0  0  0  0  0  0  0  0  0  0  0  0
    4.7988    1.0657    0.0000 C   0  0  0  0  0  0  0  0  0  0  0  0
    3.8206    0.8578    0.0000 C   0  0  0  0  0  0  0  0  0  0  0  0
    3.5116   -0.0933    0.0000 C   0  0  0  0  0  0  0  0  0  0  0  0
    4.1808   -0.8364    0.0000 C   0  0  0  0  0  0  0  0  0  0  0  0
    5.1589   -0.6285    0.0000 C   0  0  0  0  0  0  0  0  0  0  0  0
    3.6808   -1.7024    0.0000 C   0  0  0  0  0  0  0  0  0  0  0  0
    4.0875   -2.6160    0.0000 C   0  0  0  0  0  0  0  0  0  0  0  0
    5.0820   -2.7205    0.0000 C   0  0  0  0  0  0  0  0  0  0  0  0
    5.4887   -3.6341    0.0000 O   0  0  0  0  0  0  0  0  0  0  0  0
    5.6698   -1.9115    0.0000 O   0  0  0  0  0  0  0  0  0  0  0  0
    2.7026   -1.4945    0.0000 C   0  0  0  0  0  0  0  0  0  0  0  0
    1.9595   -2.1637    0.0000 C   0  0  0  0  0  0  0  0  0  0  0  0
    2.5981   -0.5000    0.0000 N   0  0  0  0  0  0  0  0  0  0  0  0
    1.7321   -0.0000    0.0000 C   0  0  0  0  0  0  0  0  0  0  0  0
    1.7321    1.0000    0.0000 O   0  0  0  0  0  0  0  0  0  0  0  0
    0.8660   -0.5000    0.0000 C   0  0  0  0  0  0  0  0  0  0  0  0
    0.8660   -1.5000    0.0000 C   0  0  0  0  0  0  0  0  0  0  0  0
    0.0000   -2.0000    0.0000 C   0  0  0  0  0  0  0  0  0  0  0  0
   -0.8660   -1.5000    0.0000 C   0  0  0  0  0  0  0  0  0  0  0  0
   -1.7321   -2.0000    0.0000 Cl  0  0  0  0  0  0  0  0  0  0  0  0
   -0.8660   -0.5000    0.0000 C   0  0  0  0  0  0  0  0  0  0  0  0
    0.0000   -0.0000    0.0000 C   0  0  0  0  0  0  0  0  0  0  0  0
  1  2  1  0  0  0  0
  2  3  1  0  0  0  0
  3  8  1  0  0  0  0
  3  4  2  0  0  0  0
  4  5  1  0  0  0  0
  5  6  2  0  0  0  0
  6 16  1  0  0  0  0
  6  7  1  0  0  0  0
  7  8  2  0  0  0  0
  7  9  1  0  0  0  0
  9 10  1  0  0  0  0
  9 14  2  0  0  0  0
 10 11  1  0  0  0  0
 11 12  2  0  0  0  0
 11 13  1  0  0  0  0
 14 15  1  0  0  0  0
 14 16  1  0  0  0  0
 16 17  1  0  0  0  0
 17 18  2  0  0  0  0
 17 19  1  0  0  0  0
 19 25  1  0  0  0  0
 19 20  2  0  0  0  0
 20 21  1  0  0  0  0
 21 22  2  0  0  0  0
 22 23  1  0  0  0  0
 22 24  1  0  0  0  0
 24 25  2  0  0  0  0
M  END
$$$$

 OpenBabel10082008492D

 19 19  0  0  0  0  0  0  0  0999 V2000
    1.0000    3.0000    0.0000 C   0  0  0  0  0  0  0  0  0  0  0  0
    0.1340    2.5000    0.0000 C   0  0  0  0  0  0  0  0  0  0  0  0
    0.1340    1.5000    0.0000 C   0  0  0  0  0  0  0  0  0  0  0  0
    1.0000    1.0000    0.0000 N   0  0  0  0  0  0  0  0  0  0  0  0
    1.8660    1.5000    0.0000 C   0  0  0  0  0  0  0  0  0  0  0  0
    2.7321    1.0000    0.0000 C   0  0  0  0  0  0  0  0  0  0  0  0
    3.5981    1.5000    0.0000 C   0  0  0  0  0  0  0  0  0  0  0  0
    1.0000    0.0000    0.0000 S   0  0  0  0  0  0  0  0  0  0  0  0
    2.0000    0.0000    0.0000 O   0  0  0  0  0  0  0  0  0  0  0  0
    1.0000   -1.0000    0.0000 O   0  0  0  0  0  0  0  0  0  0  0  0
    0.0000   -0.0000    0.0000 C   0  0  0  0  0  0  0  0  0  0  0  0
   -0.5000    0.8660    0.0000 C   0  0  0  0  0  0  0  0  0  0  0  0
   -1.5000    0.8660    0.0000 C   0  0  0  0  0  0  0  0  0  0  0  0
   -2.0000   -0.0000    0.0000 C   0  0  0  0  0  0  0  0  0  0  0  0
   -3.0000   -0.0000    0.0000 C   0  0  0  0  0  0  0  0  0  0  0  0
   -3.5000   -0.8660    0.0000 O   0  0  0  0  0  0  0  0  0  0  0  0
   -3.5000    0.8660    0.0000 O   0  0  0  0  0  0  0  0  0  0  0  0
   -1.5000   -0.8660    0.0000 C   0  0  0  0  0  0  0  0  0  0  0  0
   -0.5000   -0.8660    0.0000 C   0  0  0  0  0  0  0  0  0  0  0  0
  1  2  1  0  0  0  0
  2  3  1  0  0  0  0
  3  4  1  0  0  0  0
  4  5  1  0  0  0  0
  4  8  1  0  0  0  0
  5  6  1  0  0  0  0
  6  7  1  0  0  0  0
  8  9  2  0  0  0  0
  8 10  2  0  0  0  0
  8 11  1  0  0  0  0
 11 19  1  0  0  0  0
 11 12  2  0  0  0  0
 12 13  1  0  0  0  0
 13 14  2  0  0  0  0
 14 15  1  0  0  0  0
 14 18  1  0  0  0  0
 15 16  2  0  0  0  0
 15 17  1  0  0  0  0
 18 19  2  0  0  0  0
M  END
$$$$

 OpenBabel10082008492D

 33 35  0  0  1  0  0  0  0  0999 V2000
   -3.2376    6.3194    0.0000 C   0  0  0  0  0  0  0  0  0  0  0  0
   -3.2376    5.3472    0.0000 C   0  0  0  0  0  0  0  0  0  0  0  0
   -2.3957    4.8611    0.0000 O   0  0  0  0  0  0  0  0  0  0  0  0
   -2.3957    3.8889    0.0000 C   0  0  0  0  0  0  0  0  0  0  0  0
   -1.5537    3.4028    0.0000 C   0  0  0  0  0  0  0  0  0  0  0  0
   -1.5537    2.4306    0.0000 C   0  0  0  0  0  0  0  0  0  0  0  0
    0.1303    1.4583    0.0000 C   0  0  1  0  0  0  0  0  0  0  0  0
   -0.3559    0.6164    0.0000 H   0  0  0  0  0  0  0  0  0  0  0  0
    0.9722    0.9722    0.0000 C   0  0  0  0  0  0  0  0  0  0  0  0
    0.9722   -0.0000    0.0000 S   0  0  0  0  0  0  0  0  0  0  0  0
    1.9444   -0.0000    0.0000 C   0  0  0  0  0  0  0  0  0  0  0  0
    0.9722   -0.9722    0.0000 O   0  0  0  0  0  0  0  0  0  0  0  0
    0.0000    0.0000    0.0000 O   0  0  0  0  0  0  0  0  0  0  0  0
    0.6164    2.3003    0.0000 N   0  0  0  0  0  0  0  0  0  0  0  0
    0.2209    3.1885    0.0000 C   0  0  0  0  0  0  0  0  0  0  0  0
   -0.7301    3.3906    0.0000 O   0  0  0  0  0  0  0  0  0  0  0  0
    0.9434    3.8390    0.0000 C   0  0  0  0  0  0  0  0  0  0  0  0
    0.9434    4.8112    0.0000 C   0  0  0  0  0  0  0  0  0  0  0  0
    1.7854    5.2973    0.0000 C   0  0  0  0  0  0  0  0  0  0  0  0
    2.6274    4.8112    0.0000 C   0  0  0  0  0  0  0  0  0  0  0  0
    2.6274    3.8390    0.0000 C   0  0  0  0  0  0  0  0  0  0  0  0
    3.4693    3.3529    0.0000 N   0  0  0  0  0  0  0  0  0  0  0  0
    4.3113    3.8390    0.0000 C   0  0  0  0  0  0  0  0  0  0  0  0
    4.3113    4.8112    0.0000 C   0  0  0  0  0  0  0  0  0  0  0  0
    5.1533    3.3529    0.0000 O   0  0  0  0  0  0  0  0  0  0  0  0
    1.7854    3.3529    0.0000 C   0  0  0  0  0  0  0  0  0  0  0  0
    1.5833    2.4019    0.0000 C   0  0  0  0  0  0  0  0  0  0  0  0
    2.2338    1.6794    0.0000 O   0  0  0  0  0  0  0  0  0  0  0  0
   -2.3957    1.9444    0.0000 C   0  0  0  0  0  0  0  0  0  0  0  0
   -3.2376    2.4306    0.0000 C   0  0  0  0  0  0  0  0  0  0  0  0
   -3.2376    3.4028    0.0000 C   0  0  0  0  0  0  0  0  0  0  0  0
   -4.0796    3.8889    0.0000 O   0  0  0  0  0  0  0  0  0  0  0  0
   -4.0796    4.8611    0.0000 C   0  0  0  0  0  0  0  0  0  0  0  0
  1  2  1  0  0  0  0
  2  3  1  0  0  0  0
  3  4  1  0  0  0  0
  4 31  1  0  0  0  0
  4  5  2  0  0  0  0
  5  6  1  0  0  0  0
  6  7  1  0  0  0  0
  6 29  2  0  0  0  0
  7  8  1  1  0  0  0
  7  9  1  0  0  0  0
  7 14  1  0  0  0  0
  9 10  1  0  0  0  0
 10 11  1  0  0  0  0
 10 12  2  0  0  0  0
 10 13  2  0  0  0  0
 14 27  1  0  0  0  0
 14 15  1  0  0  0  0
 15 16  2  0  0  0  0
 15 17  1  0  0  0  0
 17 26  1  0  0  0  0
 17 18  2  0  0  0  0
 18 19  1  0  0  0  0
 19 20  2  0  0  0  0
 20 21  1  0  0  0  0
 21 22  1  0  0  0  0
 21 26  2  0  0  0  0
 22 23  1  0  0  0  0
 23 24  1  0  0  0  0
 23 25  2  0  0  0  0
 26 27  1  0  0  0  0
 27 28  2  0  0  0  0
 29 30  1  0  0  0  0
 30 31  2  0  0  0  0
 31 32  1  0  0  0  0
 32 33  1  0  0  0  0
M  END
$$$$

 OpenBabel10082008492D

 26 28  0  0  0  0  0  0  0  0999 V2000
   -0.8660   -1.5000    0.0000 C   0  0  0  0  0  0  0  0  0  0  0  0
   -0.8660   -0.5000    0.0000 C   0  0  0  0  0  0  0  0  0  0  0  0
   -1.7321   -0.0000    0.0000 C   0  0  0  0  0  0  0  0  0  0  0  0
   -1.7321    1.0000    0.0000 C   0  0  0  0  0  0  0  0  0  0  0  0
   -0.8660    1.5000    0.0000 C   0  0  0  0  0  0  0  0  0  0  0  0
   -0.8660    2.5000    0.0000 C   0  0  0  0  0  0  0  0  0  0  0  0
   -1.7321    3.0000    0.0000 C   0  0  0  0  0  0  0  0  0  0  0  0
   -2.5981    2.5000    0.0000 C   0  0  0  0  0  0  0  0  0  0  0  0
   -3.4641    3.0000    0.0000 N   0  0  0  0  0  0  0  0  0  0  0  0
   -3.5686    3.9945    0.0000 C   0  0  0  0  0  0  0  0  0  0  0  0
   -4.5468    4.2024    0.0000 C   0  0  0  0  0  0  0  0  0  0  0  0
   -5.0468    3.3364    0.0000 C   0  0  0  0  0  0  0  0  0  0  0  0
   -4.3776    2.5933    0.0000 C   0  0  0  0  0  0  0  0  0  0  0  0
   -0.0000    3.0000    0.0000 C   0  0  0  0  0  0  0  0  0  0  0  0
   -0.0000    4.0000    0.0000 C   0  0  0  0  0  0  0  0  0  0  0  0
    0.8660    4.5000    0.0000 C   0  0  0  0  0  0  0  0  0  0  0  0
    1.7321    4.0000    0.0000 C   0  0  0  0  0  0  0  0  0  0  0  0
    1.7321    3.0000    0.0000 C   0  0  0  0  0  0  0  0  0  0  0  0
    2.5981    2.5000    0.0000 C   0  0  0  0  0  0  0  0  0  0  0  0
    2.5981    1.5000    0.0000 C   0  0  0  0  0  0  0  0  0  0  0  0
    3.4641    1.0000    0.0000 C   0  0  0  0  0  0  0  0  0  0  0  0
    3.4641    0.0000    0.0000 O   0  0  0  0  0  0  0  0  0  0  0  0
    4.3301    1.5000    0.0000 O   0  0  0  0  0  0  0  0  0  0  0  0
    0.8660    2.5000    0.0000 N   0  0  0  0  0  0  0  0  0  0  0  0
   -0.0000    1.0000    0.0000 C   0  0  0  0  0  0  0  0  0  0  0  0
    0.0000   -0.0000    0.0000 C   0  0  0  0  0  0  0  0  0  0  0  0
  1  2  1  0  0  0  0
  2 26  1  0  0  0  0
  2  3  2  0  0  0  0
  3  4  1  0  0  0  0
  4  5  2  0  0  0  0
  5  6  1  0  0  0  0
  5 25  1  0  0  0  0
  6  7  2  0  0  0  0
  6 14  1  0  0  0  0
  7  8  1  0  0  0  0
  8  9  1  0  0  0  0
  9 13  1  0  0  0  0
  9 10  1  0  0  0  0
 10 11  1  0  0  0  0
 11 12  1  0  0  0  0
 12 13  1  0  0  0  0
 14 24  1  0  0  0  0
 14 15  2  0  0  0  0
 15 16  1  0  0  0  0
 16 17  2  0  0  0  0
 17 18  1  0  0  0  0
 18 19  1  0  0  0  0
 18 24  2  0  0  0  0
 19 20  2  0  0  0  0
 20 21  1  0  0  0  0
 21 22  2  0  0  0  0
 21 23  1  0  0  0  0
 25 26  2  0  0  0  0
M  END
$$$$

 OpenBabel10082008492D

 37 40  0  0  0  0  0  0  0  0999 V2000
   -0.0000    4.0000    0.0000 C   0  0  0  0  0  0  0  0  0  0  0  0
   -0.0000    3.0000    0.0000 C   0  0  0  0  0  0  0  0  0  0  0  0
   -0.8660    2.5000    0.0000 C   0  0  0  0  0  0  0  0  0  0  0  0
   -1.7321    3.0000    0.0000 O   0  0  0  0  0  0  0  0  0  0  0  0
   -0.8660    1.5000    0.0000 N   0  0  0  0  0  0  0  0  0  0  0  0
   -0.0000    1.0000    0.0000 C   0  0  0  0  0  0  0  0  0  0  0  0
    0.8660    1.5000    0.0000 C   0  0  0  0  0  0  0  0  0  0  0  0
    1.7321    1.0000    0.0000 C   0  0  0  0  0  0  0  0  0  0  0  0
    2.5981    1.5000    0.0000 N   0  0  0  0  0  0  0  0  0  0  0  0
    3.4641    1.0000    0.0000 C   0  0  0  0  0  0  0  0  0  0  0  0
    3.4641   -0.0000    0.0000 N   0  0  0  0  0  0  0  0  0  0  0  0
    4.3301   -0.5000    0.0000 C   0  0  0  0  0  0  0  0  0  0  0  0
    5.1962   -0.0000    0.0000 C   0  0  0  0  0  0  0  0  0  0  0  0
    5.1962    1.0000    0.0000 C   0  0  0  0  0  0  0  0  0  0  0  0
    6.0622    1.5000    0.0000 C   0  0  0  0  0  0  0  0  0  0  0  0
    6.9757    1.0933    0.0000 C   0  0  0  0  0  0  0  0  0  0  0  0
    7.6449    1.8364    0.0000 N   0  0  0  0  0  0  0  0  0  0  0  0
    8.6394    1.7319    0.0000 C   0  0  0  0  0  0  0  0  0  0  0  0
    7.1449    2.7024    0.0000 C   0  0  0  0  0  0  0  0  0  0  0  0
    7.4539    3.6535    0.0000 C   0  0  0  0  0  0  0  0  0  0  0  0
    6.7847    4.3966    0.0000 C   0  0  0  0  0  0  0  0  0  0  0  0
    5.8066    4.1887    0.0000 C   0  0  0  0  0  0  0  0  0  0  0  0
    5.4976    3.2377    0.0000 C   0  0  0  0  0  0  0  0  0  0  0  0
    6.1667    2.4945    0.0000 C   0  0  0  0  0  0  0  0  0  0  0  0
    4.3301    1.5000    0.0000 N   0  0  0  0  0  0  0  0  0  0  0  0
    1.7321   -0.0000    0.0000 C   0  0  0  0  0  0  0  0  0  0  0  0
    2.5981   -0.5000    0.0000 O   0  0  0  0  0  0  0  0  0  0  0  0
    2.5981   -1.5000    0.0000 C   0  0  0  0  0  0  0  0  0  0  0  0
    0.8660   -0.5000    0.0000 C   0  0  0  0  0  0  0  0  0  0  0  0
    0.0000   -0.0000    0.0000 C   0  0  0  0  0  0  0  0  0  0  0  0
   -0.8660   -0.5000    0.0000 N   0  0  0  0  0  0  0  0  0  0  0  0
   -1.7321    0.0000    0.0000 C   0  0  0  0  0  0  0  0  0  0  0  0
   -0.8660   -1.5000    0.0000 C   0  0  0  0  0  0  0  0  0  0  0  0
   -1.7321   -2.0000    0.0000 C   0  0  0  0  0  0  0  0  0  0  0  0
   -2.5981   -1.5000    0.0000 N   0  0  0  0  0  0  0  0  0  0  0  0
   -2.5981   -0.5000    0.0000 C   0  0  0  0  0  0  0  0  0  0  0  0
   -3.4641   -2.0000    0.0000 C   0  0  0  0  0  0  0  0  0  0  0  0
  1  2  2  0  0  0  0
  2  3  1  0  0  0  0
  3  4  2  0  0  0  0
  3  5  1  0  0  0  0
  5  6  1  0  0  0  0
  6 30  1  0  0  0  0
  6  7  2  0  0  0  0
  7  8  1  0  0  0  0
  8  9  1  0  0  0  0
  8 26  2  0  0  0  0
  9 10  1  0  0  0  0
 10 25  1  0  0  0  0
 10 11  2  0  0  0  0
 11 12  1  0  0  0  0
 12 13  2  0  0  0  0
 13 14  1  0  0  0  0
 14 15  1  0  0  0  0
 14 25  2  0  0  0  0
 15 24  1  0  0  0  0
 15 16  2  0  0  0  0
 16 17  1  0  0  0  0
 17 18  1  0  0  0  0
 17 19  1  0  0  0  0
 19 24  1  0  0  0  0
 19 20  2  0  0  0  0
 20 21  1  0  0  0  0
 21 22  2  0  0  0  0
 22 23  1  0  0  0  0
 23 24  2  0  0  0  0
 26 27  1  0  0  0  0
 26 29  1  0  0  0  0
 27 28  1  0  0  0  0
 29 30  2  0  0  0  0
 30 31  1  0  0  0  0
 31 32  1  0  0  0  0
 31 33  1  0  0  0  0
 33 34  1  0  0  0  0
 34 35  1  0  0  0  0
 35 36  1  0  0  0  0
 35 37  1  0  0  0  0
M  END
$$$$

 OpenBabel10082008492D

 22 23  0  0  1  0  0  0  0  0999 V2000
   -1.1360   -3.6710    0.0000 C   0  0  0  0  0  0  0  0  0  0  0  0
   -2.0871   -3.3620    0.0000 C   0  0  0  0  0  0  0  0  0  0  0  0
   -3.0652   -3.5699    0.0000 C   0  0  0  0  0  0  0  0  0  0  0  0
   -2.3961   -4.3131    0.0000 C   0  0  0  0  0  0  0  0  0  0  0  0
   -2.2950   -2.3839    0.0000 N   0  0  0  0  0  0  0  0  0  0  0  0
   -1.5518   -1.7147    0.0000 C   0  0  0  0  0  0  0  0  0  0  0  0
   -0.6008   -2.0238    0.0000 C   0  0  2  0  0  0  0  0  0  0  0  0
    0.0684   -2.7669    0.0000 H   0  0  0  0  0  0  0  0  0  0  0  0
   -0.9098   -2.9748    0.0000 O   0  0  0  0  0  0  0  0  0  0  0  0
    0.1424   -1.3546    0.0000 C   0  0  0  0  0  0  0  0  0  0  0  0
    1.0934   -1.6637    0.0000 O   0  0  0  0  0  0  0  0  0  0  0  0
    1.8366   -0.9945    0.0000 C   0  0  0  0  0  0  0  0  0  0  0  0
    2.8147   -1.2024    0.0000 N   0  0  0  0  0  0  0  0  0  0  0  0
    3.3147   -0.3364    0.0000 S   0  0  0  0  0  0  0  0  0  0  0  0
    2.6456    0.4067    0.0000 N   0  0  0  0  0  0  0  0  0  0  0  0
    1.7321   -0.0000    0.0000 C   0  0  0  0  0  0  0  0  0  0  0  0
    0.8660    0.5000    0.0000 N   0  0  0  0  0  0  0  0  0  0  0  0
    0.8660    1.5000    0.0000 C   0  0  0  0  0  0  0  0  0  0  0  0
    0.0000    2.0000    0.0000 C   0  0  0  0  0  0  0  0  0  0  0  0
   -0.8660    1.5000    0.0000 O   0  0  0  0  0  0  0  0  0  0  0  0
   -0.8660    0.5000    0.0000 C   0  0  0  0  0  0  0  0  0  0  0  0
   -0.0000   -0.0000    0.0000 C   0  0  0  0  0  0  0  0  0  0  0  0
  1  2  1  0  0  0  0
  2  3  1  0  0  0  0
  2  4  1  0  0  0  0
  2  5  1  0  0  0  0
  5  6  1  0  0  0  0
  6  7  1  0  0  0  0
  7  8  1  6  0  0  0
  7  9  1  0  0  0  0
  7 10  1  0  0  0  0
 10 11  1  0  0  0  0
 11 12  1  0  0  0  0
 12 16  1  0  0  0  0
 12 13  2  0  0  0  0
 13 14  1  0  0  0  0
 14 15  1  0  0  0  0
 15 16  2  0  0  0  0
 16 17  1  0  0  0  0
 17 22  1  0  0  0  0
 17 18  1  0  0  0  0
 18 19  1  0  0  0  0
 19 20  1  0  0  0  0
 20 21  1  0  0  0  0
 21 22  1  0  0  0  0
M  END
$$$$

 OpenBabel10082008492D

 17 18  0  0  0  0  0  0  0  0999 V2000
    4.4432   -1.7319    0.0000 C   0  0  0  0  0  0  0  0  0  0  0  0
    3.4487   -1.8364    0.0000 C   0  0  0  0  0  0  0  0  0  0  0  0
    2.9487   -2.7024    0.0000 N   0  0  0  0  0  0  0  0  0  0  0  0
    1.9706   -2.4945    0.0000 N   0  0  0  0  0  0  0  0  0  0  0  0
    1.8660   -1.5000    0.0000 C   0  0  0  0  0  0  0  0  0  0  0  0
    1.0000   -1.0000    0.0000 N   0  0  0  0  0  0  0  0  0  0  0  0
    1.0000    0.0000    0.0000 S   0  0  0  0  0  0  0  0  0  0  0  0
    2.0000    0.0000    0.0000 O   0  0  0  0  0  0  0  0  0  0  0  0
    1.0000    1.0000    0.0000 O   0  0  0  0  0  0  0  0  0  0  0  0
    0.0000   -0.0000    0.0000 C   0  0  0  0  0  0  0  0  0  0  0  0
   -0.5000   -0.8660    0.0000 C   0  0  0  0  0  0  0  0  0  0  0  0
   -1.5000   -0.8660    0.0000 C   0  0  0  0  0  0  0  0  0  0  0  0
   -2.0000   -0.0000    0.0000 C   0  0  0  0  0  0  0  0  0  0  0  0
   -3.0000    0.0000    0.0000 N   0  0  0  0  0  0  0  0  0  0  0  0
   -1.5000    0.8660    0.0000 C   0  0  0  0  0  0  0  0  0  0  0  0
   -0.5000    0.8660    0.0000 C   0  0  0  0  0  0  0  0  0  0  0  0
    2.7796   -1.0933    0.0000 S   0  0  0  0  0  0  0  0  0  0  0  0
  1  2  1  0  0  0  0
  2 17  1  0  0  0  0
  2  3  2  0  0  0  0
  3  4  1  0  0  0  0
  4  5  2  0  0  0  0
  5  6  1  0  0  0  0
  5 17  1  0  0  0  0
  6  7  1  0  0  0  0
  7  8  2  0  0  0  0
  7  9  2  0  0  0  0
  7 10  1  0  0  0  0
 10 16  1  0  0  0  0
 10 11  2  0  0  0  0
 11 12  1  0  0  0  0
 12 13  2  0  0  0  0
 13 14  1  0  0  0  0
 13 15  1  0  0  0  0
 15 16  2  0  0  0  0
M  END
$$$$

 OpenBabel10082008492D

 16 16  0  0  1  0  0  0  0  0999 V2000
   -3.4641   -0.0000    0.0000 C   0  0  0  0  0  0  0  0  0  0  0  0
   -2.5981   -0.5000    0.0000 C   0  0  0  0  0  0  0  0  0  0  0  0
   -1.5981   -0.5000    0.0000 C   0  0  0  0  0  0  0  0  0  0  0  0
   -2.0981    0.3660    0.0000 C   0  0  0  0  0  0  0  0  0  0  0  0
   -2.5981   -1.5000    0.0000 N   0  0  0  0  0  0  0  0  0  0  0  0
   -1.7321   -2.0000    0.0000 C   0  0  0  0  0  0  0  0  0  0  0  0
   -0.8660   -1.5000    0.0000 C   0  0  3  0  0  0  0  0  0  0  0  0
   -0.0000   -2.0000    0.0000 O   0  0  0  0  0  0  0  0  0  0  0  0
   -0.8660   -0.5000    0.0000 C   0  0  0  0  0  0  0  0  0  0  0  0
   -1.7321   -0.0000    0.0000 C   0  0  0  0  0  0  0  0  0  0  0  0
   -1.7321    1.0000    0.0000 C   0  0  0  0  0  0  0  0  0  0  0  0
   -2.5981    1.5000    0.0000 O   0  0  0  0  0  0  0  0  0  0  0  0
   -0.8660    1.5000    0.0000 C   0  0  0  0  0  0  0  0  0  0  0  0
   -0.0000    1.0000    0.0000 C   0  0  0  0  0  0  0  0  0  0  0  0
    0.8660    1.5000    0.0000 O   0  0  0  0  0  0  0  0  0  0  0  0
    0.0000   -0.0000    0.0000 C   0  0  0  0  0  0  0  0  0  0  0  0
  1  2  1  0  0  0  0
  2  3  1  0  0  0  0
  2  4  1  0  0  0  0
  2  5  1  0  0  0  0
  5  6  1  0  0  0  0
  6  7  1  0  0  0  0
  7  8  1  0  0  0  0
  7  9  1  0  0  0  0
  9 16  1  0  0  0  0
  9 10  2  0  0  0  0
 10 11  1  0  0  0  0
 11 12  1  0  0  0  0
 11 13  2  0  0  0  0
 13 14  1  0  0  0  0
 14 15  1  0  0  0  0
 14 16  2  0  0  0  0
M  END
$$$$

 OpenBabel10082008492D

 26 27  0  0  1  0  0  0  0  0999 V2000
    2.5981   -4.5000    0.0000 C   0  0  0  0  0  0  0  0  0  0  0  0
    2.5981   -3.5000    0.0000 C   0  0  0  0  0  0  0  0  0  0  0  0
    1.7321   -3.0000    0.0000 C   0  0  0  0  0  0  0  0  0  0  0  0
    0.8660   -3.5000    0.0000 O   0  0  0  0  0  0  0  0  0  0  0  0
    1.7321   -2.0000    0.0000 O   0  0  0  0  0  0  0  0  0  0  0  0
    0.8660   -1.5000    0.0000 C   0  0  2  0  0  0  0  0  0  0  0  0
    1.3660   -0.6340    0.0000 C   0  0  0  0  0  0  0  0  0  0  0  0
    2.3660   -0.6340    0.0000 C   0  0  0  0  0  0  0  0  0  0  0  0
    2.8660   -1.5000    0.0000 C   0  0  0  0  0  0  0  0  0  0  0  0
    3.8660   -1.5000    0.0000 C   0  0  0  0  0  0  0  0  0  0  0  0
    4.3660   -0.6340    0.0000 C   0  0  0  0  0  0  0  0  0  0  0  0
    3.8660    0.2321    0.0000 C   0  0  0  0  0  0  0  0  0  0  0  0
    2.8660    0.2321    0.0000 C   0  0  0  0  0  0  0  0  0  0  0  0
    0.0000   -1.0000    0.0000 C   0  0  0  0  0  0  0  0  0  0  0  0
   -0.8660   -1.5000    0.0000 C   0  0  0  0  0  0  0  0  0  0  0  0
   -1.7321   -1.0000    0.0000 C   0  0  0  0  0  0  0  0  0  0  0  0
   -1.7321   -0.0000    0.0000 C   0  0  0  0  0  0  0  0  0  0  0  0
   -0.8660    0.5000    0.0000 C   0  0  0  0  0  0  0  0  0  0  0  0
    0.0000    0.0000    0.0000 C   0  0  0  0  0  0  0  0  0  0  0  0
    0.3660   -2.3660    0.0000 C   0  0  2  0  0  0  0  0  0  0  0  0
    0.3660   -3.3660    0.0000 H   0  0  0  0  0  0  0  0  0  0  0  0
    1.2321   -2.8660    0.0000 C   0  0  0  0  0  0  0  0  0  0  0  0
   -0.6340   -2.3660    0.0000 C   0  0  0  0  0  0  0  0  0  0  0  0
   -1.1340   -3.2321    0.0000 N   0  0  0  0  0  0  0  0  0  0  0  0
   -0.6340   -4.0981    0.0000 C   0  0  0  0  0  0  0  0  0  0  0  0
   -2.1340   -3.2321    0.0000 C   0  0  0  0  0  0  0  0  0  0  0  0
  1  2  1  0  0  0  0
  2  3  1  0  0  0  0
  3  4  2  0  0  0  0
  3  5  1  0  0  0  0
  6  5  1  1  0  0  0
  6  7  1  0  0  0  0
  6 14  1  0  0  0  0
  6 20  1  0  0  0  0
  7  8  1  0  0  0  0
  8 13  1  0  0  0  0
  8  9  2  0  0  0  0
  9 10  1  0  0  0  0
 10 11  2  0  0  0  0
 11 12  1  0  0  0  0
 12 13  2  0  0  0  0
 14 19  1  0  0  0  0
 14 15  2  0  0  0  0
 15 16  1  0  0  0  0
 16 17  2  0  0  0  0
 17 18  1  0  0  0  0
 18 19  2  0  0  0  0
 20 21  1  1  0  0  0
 20 22  1  0  0  0  0
 20 23  1  0  0  0  0
 23 24  1  0  0  0  0
 24 25  1  0  0  0  0
 24 26  1  0  0  0  0
M  END
$$$$

 OpenBabel10082008492D

 31 34  0  0  0  0  0  0  0  0999 V2000
    4.3301   -3.5000    0.0000 C   0  0  0  0  0  0  0  0  0  0  0  0
    3.4641   -3.0000    0.0000 O   0  0  0  0  0  0  0  0  0  0  0  0
    2.5981   -3.5000    0.0000 C   0  0  0  0  0  0  0  0  0  0  0  0
    2.5981   -4.5000    0.0000 C   0  0  0  0  0  0  0  0  0  0  0  0
    1.7321   -5.0000    0.0000 C   0  0  0  0  0  0  0  0  0  0  0  0
    1.7321   -6.0000    0.0000 C   0  0  0  0  0  0  0  0  0  0  0  0
    0.8660   -6.5000    0.0000 C   0  0  0  0  0  0  0  0  0  0  0  0
    2.5981   -6.5000    0.0000 O   0  0  0  0  0  0  0  0  0  0  0  0
    0.8660   -4.5000    0.0000 C   0  0  0  0  0  0  0  0  0  0  0  0
    0.8660   -3.5000    0.0000 C   0  0  0  0  0  0  0  0  0  0  0  0
    1.7321   -3.0000    0.0000 C   0  0  0  0  0  0  0  0  0  0  0  0
    1.7321   -2.0000    0.0000 O   0  0  0  0  0  0  0  0  0  0  0  0
    2.5981   -1.5000    0.0000 C   0  0  0  0  0  0  0  0  0  0  0  0
    2.5981   -0.5000    0.0000 C   0  0  0  0  0  0  0  0  0  0  0  0
    1.7321    0.0000    0.0000 C   0  0  0  0  0  0  0  0  0  0  0  0
    0.8660   -0.5000    0.0000 N   0  0  0  0  0  0  0  0  0  0  0  0
    0.8660   -1.5000    0.0000 C   0  0  0  0  0  0  0  0  0  0  0  0
    0.0000   -2.0000    0.0000 C   0  0  0  0  0  0  0  0  0  0  0  0
   -0.8660   -1.5000    0.0000 C   0  0  0  0  0  0  0  0  0  0  0  0
   -1.7321   -2.0000    0.0000 C   0  0  0  0  0  0  0  0  0  0  0  0
   -1.8366   -2.9945    0.0000 N   0  0  0  0  0  0  0  0  0  0  0  0
   -2.8147   -3.2024    0.0000 O   0  0  0  0  0  0  0  0  0  0  0  0
   -3.3147   -2.3364    0.0000 C   0  0  0  0  0  0  0  0  0  0  0  0
   -4.2929   -2.1285    0.0000 C   0  0  0  0  0  0  0  0  0  0  0  0
   -4.6019   -1.1774    0.0000 C   0  0  0  0  0  0  0  0  0  0  0  0
   -5.5800   -0.9695    0.0000 F   0  0  0  0  0  0  0  0  0  0  0  0
   -3.9328   -0.4343    0.0000 C   0  0  0  0  0  0  0  0  0  0  0  0
   -2.9546   -0.6422    0.0000 C   0  0  0  0  0  0  0  0  0  0  0  0
   -2.6456   -1.5933    0.0000 C   0  0  0  0  0  0  0  0  0  0  0  0
   -0.8660   -0.5000    0.0000 C   0  0  0  0  0  0  0  0  0  0  0  0
   -0.0000   -0.0000    0.0000 C   0  0  0  0  0  0  0  0  0  0  0  0
  1  2  1  0  0  0  0
  2  3  1  0  0  0  0
  3 11  1  0  0  0  0
  3  4  2  0  0  0  0
  4  5  1  0  0  0  0
  5  6  1  0  0  0  0
  5  9  2  0  0  0  0
  6  7  1  0  0  0  0
  6  8  2  0  0  0  0
  9 10  1  0  0  0  0
 10 11  2  0  0  0  0
 11 12  1  0  0  0  0
 12 13  1  0  0  0  0
 13 14  1  0  0  0  0
 14 15  1  0  0  0  0
 15 16  1  0  0  0  0
 16 31  1  0  0  0  0
 16 17  1  0  0  0  0
 17 18  1  0  0  0  0
 18 19  1  0  0  0  0
 19 20  1  0  0  0  0
 19 30  1  0  0  0  0
 20 29  1  0  0  0  0
 20 21  2  0  0  0  0
 21 22  1  0  0  0  0
 22 23  1  0  0  0  0
 23 29  1  0  0  0  0
 23 24  2  0  0  0  0
 24 25  1  0  0  0  0
 25 26  1  0  0  0  0
 25 27  2  0  0  0  0
 27 28  1  0  0  0  0
 28 29  2  0  0  0  0
 30 31  1  0  0  0  0
M  END
$$$$

 OpenBabel10082008492D

 31 34  0  0  0  0  0  0  0  0999 V2000
    4.1354    2.8412    0.0000 C   0  0  0  0  0  0  0  0  0  0  0  0
    3.1843    2.5322    0.0000 C   0  0  0  0  0  0  0  0  0  0  0  0
    2.9764    1.5540    0.0000 C   0  0  0  0  0  0  0  0  0  0  0  0
    3.7195    0.8849    0.0000 C   0  0  0  0  0  0  0  0  0  0  0  0
    3.5116   -0.0933    0.0000 C   0  0  0  0  0  0  0  0  0  0  0  0
    4.1808   -0.8364    0.0000 N   0  0  0  0  0  0  0  0  0  0  0  0
    3.6808   -1.7024    0.0000 C   0  0  0  0  0  0  0  0  0  0  0  0
    4.0875   -2.6160    0.0000 Cl  0  0  0  0  0  0  0  0  0  0  0  0
    2.7026   -1.4945    0.0000 C   0  0  0  0  0  0  0  0  0  0  0  0
    1.9595   -2.1637    0.0000 C   0  0  0  0  0  0  0  0  0  0  0  0
    2.1674   -3.1418    0.0000 O   0  0  0  0  0  0  0  0  0  0  0  0
    2.5981   -0.5000    0.0000 N   0  0  0  0  0  0  0  0  0  0  0  0
    1.7321   -0.0000    0.0000 C   0  0  0  0  0  0  0  0  0  0  0  0
    0.8660   -0.5000    0.0000 C   0  0  0  0  0  0  0  0  0  0  0  0
    0.8660   -1.5000    0.0000 C   0  0  0  0  0  0  0  0  0  0  0  0
    0.0000   -2.0000    0.0000 C   0  0  0  0  0  0  0  0  0  0  0  0
   -0.8660   -1.5000    0.0000 C   0  0  0  0  0  0  0  0  0  0  0  0
   -1.7321   -2.0000    0.0000 C   0  0  0  0  0  0  0  0  0  0  0  0
   -1.7321   -3.0000    0.0000 C   0  0  0  0  0  0  0  0  0  0  0  0
   -2.5981   -3.5000    0.0000 C   0  0  0  0  0  0  0  0  0  0  0  0
   -3.4641   -3.0000    0.0000 C   0  0  0  0  0  0  0  0  0  0  0  0
   -3.4641   -2.0000    0.0000 C   0  0  0  0  0  0  0  0  0  0  0  0
   -2.5981   -1.5000    0.0000 C   0  0  0  0  0  0  0  0  0  0  0  0
   -2.5981   -0.5000    0.0000 C   0  0  0  0  0  0  0  0  0  0  0  0
   -1.7891    0.0878    0.0000 N   0  0  0  0  0  0  0  0  0  0  0  0
   -2.0981    1.0388    0.0000 N   0  0  0  0  0  0  0  0  0  0  0  0
   -3.0981    1.0388    0.0000 N   0  0  0  0  0  0  0  0  0  0  0  0
   -3.4071    0.0878    0.0000 N   0  0  0  0  0  0  0  0  0  0  0  0
   -4.3581   -0.2212    0.0000 H   0  0  0  0  0  0  0  0  0  0  0  0
   -0.8660   -0.5000    0.0000 C   0  0  0  0  0  0  0  0  0  0  0  0
    0.0000   -0.0000    0.0000 C   0  0  0  0  0  0  0  0  0  0  0  0
  1  2  1  0  0  0  0
  2  3  1  0  0  0  0
  3  4  1  0  0  0  0
  4  5  1  0  0  0  0
  5 12  1  0  0  0  0
  5  6  2  0  0  0  0
  6  7  1  0  0  0  0
  7  8  1  0  0  0  0
  7  9  2  0  0  0  0
  9 10  1  0  0  0  0
  9 12  1  0  0  0  0
 10 11  1  0  0  0  0
 12 13  1  0  0  0  0
 13 14  1  0  0  0  0
 14 31  1  0  0  0  0
 14 15  2  0  0  0  0
 15 16  1  0  0  0  0
 16 17  2  0  0  0  0
 17 18  1  0  0  0  0
 17 30  1  0  0  0  0
 18 23  1  0  0  0  0
 18 19  2  0  0  0  0
 19 20  1  0  0  0  0
 20 21  2  0  0  0  0
 21 22  1  0  0  0  0
 22 23  2  0  0  0  0
 23 24  1  0  0  0  0
 24 28  1  0  0  0  0
 24 25  2  0  0  0  0
 25 26  1  0  0  0  0
 26 27  2  0  0  0  0
 27 28  1  0  0  0  0
 28 29  1  0  0  0  0
 30 31  2  0  0  0  0
M  END
$$$$

 OpenBabel10082008492D

 35 36  0  0  0  0  0  0  0  0999 V2000
   -1.0000    2.7321    0.0000 C   0  0  0  0  0  0  0  0  0  0  0  0
   -1.0000    1.7321    0.0000 C   0  0  0  0  0  0  0  0  0  0  0  0
   -2.0000    1.7321    0.0000 C   0  0  0  0  0  0  0  0  0  0  0  0
   -1.0000    0.7321    0.0000 S   0  0  0  0  0  0  0  0  0  0  0  0
   -1.8660    0.2321    0.0000 C   0  0  0  0  0  0  0  0  0  0  0  0
   -2.7321    0.7321    0.0000 C   0  0  0  0  0  0  0  0  0  0  0  0
   -3.5981    0.2321    0.0000 C   0  0  0  0  0  0  0  0  0  0  0  0
   -4.4641    0.7321    0.0000 C   0  0  0  0  0  0  0  0  0  0  0  0
   -4.9641    1.5981    0.0000 C   0  0  0  0  0  0  0  0  0  0  0  0
   -3.9641    1.5981    0.0000 C   0  0  0  0  0  0  0  0  0  0  0  0
   -5.3301    0.2321    0.0000 C   0  0  0  0  0  0  0  0  0  0  0  0
   -3.5981   -0.7679    0.0000 C   0  0  0  0  0  0  0  0  0  0  0  0
   -4.4641   -1.2679    0.0000 O   0  0  0  0  0  0  0  0  0  0  0  0
   -2.7321   -1.2679    0.0000 C   0  0  0  0  0  0  0  0  0  0  0  0
   -2.7321   -2.2679    0.0000 C   0  0  0  0  0  0  0  0  0  0  0  0
   -3.2321   -3.1340    0.0000 C   0  0  0  0  0  0  0  0  0  0  0  0
   -3.7321   -2.2679    0.0000 C   0  0  0  0  0  0  0  0  0  0  0  0
   -1.8660   -2.7679    0.0000 C   0  0  0  0  0  0  0  0  0  0  0  0
   -1.8660   -0.7679    0.0000 C   0  0  0  0  0  0  0  0  0  0  0  0
    0.0000    1.7321    0.0000 S   0  0  0  0  0  0  0  0  0  0  0  0
    0.5000    0.8660    0.0000 C   0  0  0  0  0  0  0  0  0  0  0  0
    1.5000    0.8660    0.0000 C   0  0  0  0  0  0  0  0  0  0  0  0
    2.0000   -0.0000    0.0000 C   0  0  0  0  0  0  0  0  0  0  0  0
    3.0000   -0.0000    0.0000 C   0  0  0  0  0  0  0  0  0  0  0  0
    3.8660    0.5000    0.0000 C   0  0  0  0  0  0  0  0  0  0  0  0
    3.0000    1.0000    0.0000 C   0  0  0  0  0  0  0  0  0  0  0  0
    3.5000   -0.8660    0.0000 C   0  0  0  0  0  0  0  0  0  0  0  0
    1.5000   -0.8660    0.0000 C   0  0  0  0  0  0  0  0  0  0  0  0
    2.0000   -1.7321    0.0000 O   0  0  0  0  0  0  0  0  0  0  0  0
    0.5000   -0.8660    0.0000 C   0  0  0  0  0  0  0  0  0  0  0  0
   -0.0000   -1.7321    0.0000 C   0  0  0  0  0  0  0  0  0  0  0  0
   -0.0000   -2.7321    0.0000 C   0  0  0  0  0  0  0  0  0  0  0  0
    0.8660   -2.2321    0.0000 C   0  0  0  0  0  0  0  0  0  0  0  0
   -1.0000   -1.7321    0.0000 C   0  0  0  0  0  0  0  0  0  0  0  0
    0.0000   -0.0000    0.0000 C   0  0  0  0  0  0  0  0  0  0  0  0
  1  2  1  0  0  0  0
  2  3  1  0  0  0  0
  2  4  1  0  0  0  0
  2 20  1  0  0  0  0
  4  5  1  0  0  0  0
  5 19  1  0  0  0  0
  5  6  2  0  0  0  0
  6  7  1  0  0  0  0
  7  8  1  0  0  0  0
  7 12  2  0  0  0  0
  8  9  1  0  0  0  0
  8 10  1  0  0  0  0
  8 11  1  0  0  0  0
 12 13  1  0  0  0  0
 12 14  1  0  0  0  0
 14 15  1  0  0  0  0
 14 19  2  0  0  0  0
 15 16  1  0  0  0  0
 15 17  1  0  0  0  0
 15 18  1  0  0  0  0
 20 21  1  0  0  0  0
 21 35  1  0  0  0  0
 21 22  2  0  0  0  0
 22 23  1  0  0  0  0
 23 24  1  0  0  0  0
 23 28  2  0  0  0  0
 24 25  1  0  0  0  0
 24 26  1  0  0  0  0
 24 27  1  0  0  0  0
 28 29  1  0  0  0  0
 28 30  1  0  0  0  0
 30 31  1  0  0  0  0
 30 35  2  0  0  0  0
 31 32  1  0  0  0  0
 31 33  1  0  0  0  0
 31 34  1  0  0  0  0
M  END
$$$$

 OpenBabel10082008492D

 19 20  0  0  0  0  0  0  0  0999 V2000
    5.1962    1.0000    0.0000 O   0  0  0  0  0  0  0  0  0  0  0  0
    4.3301    1.5000    0.0000 C   0  0  0  0  0  0  0  0  0  0  0  0
    4.3301    2.5000    0.0000 O   0  0  0  0  0  0  0  0  0  0  0  0
    3.4641    1.0000    0.0000 C   0  0  0  0  0  0  0  0  0  0  0  0
    3.4641    0.0000    0.0000 C   0  0  0  0  0  0  0  0  0  0  0  0
    4.3301   -0.5000    0.0000 C   0  0  0  0  0  0  0  0  0  0  0  0
    4.3301   -1.5000    0.0000 C   0  0  0  0  0  0  0  0  0  0  0  0
    3.4641   -2.0000    0.0000 C   0  0  0  0  0  0  0  0  0  0  0  0
    2.5981   -1.5000    0.0000 C   0  0  0  0  0  0  0  0  0  0  0  0
    2.5981   -0.5000    0.0000 C   0  0  0  0  0  0  0  0  0  0  0  0
    1.7321    0.0000    0.0000 N   0  0  0  0  0  0  0  0  0  0  0  0
    0.8660   -0.5000    0.0000 C   0  0  0  0  0  0  0  0  0  0  0  0
    0.8660   -1.5000    0.0000 C   0  0  0  0  0  0  0  0  0  0  0  0
    1.7321   -2.0000    0.0000 Cl  0  0  0  0  0  0  0  0  0  0  0  0
    0.0000   -2.0000    0.0000 C   0  0  0  0  0  0  0  0  0  0  0  0
   -0.8660   -1.5000    0.0000 C   0  0  0  0  0  0  0  0  0  0  0  0
   -0.8660   -0.5000    0.0000 C   0  0  0  0  0  0  0  0  0  0  0  0
   -0.0000   -0.0000    0.0000 C   0  0  0  0  0  0  0  0  0  0  0  0
   -0.0000    1.0000    0.0000 Cl  0  0  0  0  0  0  0  0  0  0  0  0
  1  2  2  0  0  0  0
  2  3  1  0  0  0  0
  2  4  1  0  0  0  0
  4  5  1  0  0  0  0
  5 10  1  0  0  0  0
  5  6  2  0  0  0  0
  6  7  1  0  0  0  0
  7  8  2  0  0  0  0
  8  9  1  0  0  0  0
  9 10  2  0  0  0  0
 10 11  1  0  0  0  0
 11 12  1  0  0  0  0
 12 18  1  0  0  0  0
 12 13  2  0  0  0  0
 13 14  1  0  0  0  0
 13 15  1  0  0  0  0
 15 16  2  0  0  0  0
 16 17  1  0  0  0  0
 17 18  2  0  0  0  0
 18 19  1  0  0  0  0
M  END
$$$$

 OpenBabel10082008492D

 22 24  0  0  1  0  0  0  0  0999 V2000
    2.4097    3.1071    0.0000 C   0  0  0  0  0  0  0  0  0  0  0  0
    3.3569    2.9055    0.0000 C   0  0  0  0  0  0  0  0  0  0  0  0
    3.3568    1.9370    0.0000 C   0  0  0  0  0  0  0  0  0  0  0  0
    4.1954    1.4526    0.0000 C   0  0  0  0  0  0  0  0  0  0  0  0
    4.1952    0.4835    0.0000 C   0  0  0  0  0  0  0  0  0  0  0  0
    3.3564   -0.0007    0.0000 C   0  0  0  0  0  0  0  0  0  0  0  0
    2.5172    0.4838    0.0000 C   0  0  0  0  0  0  0  0  0  0  0  0
    0.8393    0.4841    0.0000 C   0  0  0  0  0  0  0  0  0  0  0  0
    0.8395    1.4532    0.0000 C   0  0  0  0  0  0  0  0  0  0  0  0
    1.6783    1.9374    0.0000 N   0  0  0  0  0  0  0  0  0  0  0  0
    1.6785    2.9479    0.0000 H   0  0  0  0  0  0  0  0  0  0  0  0
    2.5174    1.4529    0.0000 C   0  0  0  0  0  0  0  0  0  0  0  0
    0.0004    1.9377    0.0000 C   0  0  3  0  0  0  0  0  0  0  0  0
    0.0006    2.9062    0.0000 C   0  0  0  0  0  0  0  0  0  0  0  0
   -0.9626    3.0076    0.0000 C   0  0  0  0  0  0  0  0  0  0  0  0
   -0.8384    2.4220    0.0000 C   0  0  0  0  0  0  0  0  0  0  0  0
   -0.4444    3.3067    0.0000 C   0  0  0  0  0  0  0  0  0  0  0  0
   -1.0137    4.0903    0.0000 O   0  0  0  0  0  0  0  0  0  0  0  0
    0.5188    3.4080    0.0000 O   0  0  0  0  0  0  0  0  0  0  0  0
   -0.8384    1.4536    0.0000 O   0  0  0  0  0  0  0  0  0  0  0  0
   -0.8386    0.4845    0.0000 C   0  0  0  0  0  0  0  0  0  0  0  0
    0.0000   -0.0000    0.0000 C   0  0  0  0  0  0  0  0  0  0  0  0
  1  2  1  0  0  0  0
  2  3  1  0  0  0  0
  3 12  1  0  0  0  0
  3  4  2  0  0  0  0
  4  5  1  0  0  0  0
  5  6  2  0  0  0  0
  6  7  1  0  0  0  0
  7 12  2  0  0  0  0
  7  8  1  0  0  0  0
  8 22  1  0  0  0  0
  8  9  2  0  0  0  0
  9 10  1  0  0  0  0
  9 13  1  0  0  0  0
 10 11  1  0  0  0  0
 10 12  1  0  0  0  0
 13 14  1  0  0  0  0
 13 16  1  0  0  0  0
 13 20  1  0  0  0  0
 14 15  1  0  0  0  0
 16 17  1  0  0  0  0
 17 18  2  0  0  0  0
 17 19  1  0  0  0  0
 20 21  1  0  0  0  0
 21 22  1  0  0  0  0
M  END
$$$$

 OpenBabel10082008492D

 23 25  0  0  0  0  0  0  0  0999 V2000
    1.6637   -0.6386    0.0000 C   0  0  0  0  0  0  0  0  0  0  0  0
    0.6691   -0.7431    0.0000 C   0  0  0  0  0  0  0  0  0  0  0  0
    0.1691   -1.6092    0.0000 C   0  0  0  0  0  0  0  0  0  0  0  0
   -0.8090   -1.4013    0.0000 N   0  0  0  0  0  0  0  0  0  0  0  0
   -0.9135   -0.4067    0.0000 C   0  0  0  0  0  0  0  0  0  0  0  0
   -1.7796    0.0933    0.0000 N   0  0  0  0  0  0  0  0  0  0  0  0
   -2.6456   -0.4067    0.0000 C   0  0  0  0  0  0  0  0  0  0  0  0
   -2.6456   -1.4067    0.0000 O   0  0  0  0  0  0  0  0  0  0  0  0
   -3.5116    0.0933    0.0000 C   0  0  0  0  0  0  0  0  0  0  0  0
   -3.5116    1.0933    0.0000 C   0  0  0  0  0  0  0  0  0  0  0  0
   -2.6456    1.5933    0.0000 O   0  0  0  0  0  0  0  0  0  0  0  0
   -4.3776    1.5933    0.0000 C   0  0  0  0  0  0  0  0  0  0  0  0
   -4.3776    2.5933    0.0000 C   0  0  0  0  0  0  0  0  0  0  0  0
   -5.2437    3.0933    0.0000 C   0  0  0  0  0  0  0  0  0  0  0  0
   -6.1097    2.5933    0.0000 C   0  0  0  0  0  0  0  0  0  0  0  0
   -6.1097    1.5933    0.0000 C   0  0  0  0  0  0  0  0  0  0  0  0
   -5.2437    1.0933    0.0000 C   0  0  0  0  0  0  0  0  0  0  0  0
   -5.2437    0.0933    0.0000 S   0  0  0  0  0  0  0  0  0  0  0  0
   -5.7437   -0.7728    0.0000 O   0  0  0  0  0  0  0  0  0  0  0  0
   -6.2437    0.0933    0.0000 O   0  0  0  0  0  0  0  0  0  0  0  0
   -4.3776   -0.4067    0.0000 N   0  0  0  0  0  0  0  0  0  0  0  0
   -4.3776   -1.4067    0.0000 C   0  0  0  0  0  0  0  0  0  0  0  0
    0.0000   -0.0000    0.0000 S   0  0  0  0  0  0  0  0  0  0  0  0
  1  2  1  0  0  0  0
  2 23  1  0  0  0  0
  2  3  2  0  0  0  0
  3  4  1  0  0  0  0
  4  5  2  0  0  0  0
  5  6  1  0  0  0  0
  5 23  1  0  0  0  0
  6  7  1  0  0  0  0
  7  8  2  0  0  0  0
  7  9  1  0  0  0  0
  9 21  1  0  0  0  0
  9 10  2  0  0  0  0
 10 11  1  0  0  0  0
 10 12  1  0  0  0  0
 12 17  1  0  0  0  0
 12 13  2  0  0  0  0
 13 14  1  0  0  0  0
 14 15  2  0  0  0  0
 15 16  1  0  0  0  0
 16 17  2  0  0  0  0
 17 18  1  0  0  0  0
 18 19  2  0  0  0  0
 18 20  2  0  0  0  0
 18 21  1  0  0  0  0
 21 22  1  0  0  0  0
M  END
$$$$

 OpenBabel10082008492D

 11 11  0  0  1  0  0  0  0  0999 V2000
    1.0370   -2.0411    0.0000 C   0  0  0  0  0  0  0  0  0  0  0  0
    0.6787   -1.1075    0.0000 C   0  0  0  0  0  0  0  0  0  0  0  0
   -0.3090   -0.9511    0.0000 C   0  0  3  0  0  0  0  0  0  0  0  0
   -0.6588   -1.8879    0.0000 C   0  0  0  0  0  0  0  0  0  0  0  0
   -1.3090   -0.9511    0.0000 O   0  0  0  0  0  0  0  0  0  0  0  0
   -1.6180   -0.0000    0.0000 C   0  0  0  0  0  0  0  0  0  0  0  0
   -2.5691    0.3090    0.0000 O   0  0  0  0  0  0  0  0  0  0  0  0
   -0.8090    0.5878    0.0000 N   0  0  0  0  0  0  0  0  0  0  0  0
   -0.8090    1.5878    0.0000 C   0  0  0  0  0  0  0  0  0  0  0  0
   -0.0000   -0.0000    0.0000 C   0  0  0  0  0  0  0  0  0  0  0  0
    0.9511    0.3090    0.0000 O   0  0  0  0  0  0  0  0  0  0  0  0
  1  2  1  0  0  0  0
  2  3  1  0  0  0  0
  3 10  1  0  0  0  0
  3  4  1  0  0  0  0
  3  5  1  0  0  0  0
  5  6  1  0  0  0  0
  6  7  2  0  0  0  0
  6  8  1  0  0  0  0
  8  9  1  0  0  0  0
  8 10  1  0  0  0  0
 10 11  2  0  0  0  0
M  END
$$$$

 OpenBabel10082008492D

 26 27  0  0  1  0  0  0  0  0999 V2000
   -6.1340   -3.2321    0.0000 C   0  0  0  0  0  0  0  0  0  0  0  0
   -5.6340   -4.0981    0.0000 C   0  0  0  0  0  0  0  0  0  0  0  0
   -4.6340   -4.0981    0.0000 N   0  0  0  0  0  0  0  0  0  0  0  0
   -4.1340   -4.9641    0.0000 C   0  0  0  0  0  0  0  0  0  0  0  0
   -3.1340   -4.9641    0.0000 C   0  0  0  0  0  0  0  0  0  0  0  0
   -4.1340   -3.2321    0.0000 C   0  0  0  0  0  0  0  0  0  0  0  0
   -3.1340   -3.2321    0.0000 C   0  0  0  0  0  0  0  0  0  0  0  0
   -2.1340   -3.2321    0.0000 C   0  0  0  0  0  0  0  0  0  0  0  0
   -1.1340   -3.2321    0.0000 C   0  0  0  0  0  0  0  0  0  0  0  0
   -0.6340   -2.3660    0.0000 O   0  0  0  0  0  0  0  0  0  0  0  0
    0.3660   -2.3660    0.0000 C   0  0  0  0  0  0  0  0  0  0  0  0
    0.8660   -3.2321    0.0000 O   0  0  0  0  0  0  0  0  0  0  0  0
    0.8660   -1.5000    0.0000 C   0  0  3  0  0  0  0  0  0  0  0  0
    1.7321   -2.0000    0.0000 O   0  0  0  0  0  0  0  0  0  0  0  0
    1.3660   -0.6340    0.0000 C   0  0  0  0  0  0  0  0  0  0  0  0
    0.8660    0.2321    0.0000 C   0  0  0  0  0  0  0  0  0  0  0  0
    1.3660    1.0981    0.0000 C   0  0  0  0  0  0  0  0  0  0  0  0
    2.3660    1.0981    0.0000 C   0  0  0  0  0  0  0  0  0  0  0  0
    2.8660    0.2321    0.0000 C   0  0  0  0  0  0  0  0  0  0  0  0
    2.3660   -0.6340    0.0000 C   0  0  0  0  0  0  0  0  0  0  0  0
    0.0000   -1.0000    0.0000 C   0  0  0  0  0  0  0  0  0  0  0  0
   -0.8660   -1.5000    0.0000 C   0  0  0  0  0  0  0  0  0  0  0  0
   -1.7321   -1.0000    0.0000 C   0  0  0  0  0  0  0  0  0  0  0  0
   -1.7321   -0.0000    0.0000 C   0  0  0  0  0  0  0  0  0  0  0  0
   -0.8660    0.5000    0.0000 C   0  0  0  0  0  0  0  0  0  0  0  0
    0.0000   -0.0000    0.0000 C   0  0  0  0  0  0  0  0  0  0  0  0
  1  2  1  0  0  0  0
  2  3  1  0  0  0  0
  3  4  1  0  0  0  0
  3  6  1  0  0  0  0
  4  5  1  0  0  0  0
  6  7  1  0  0  0  0
  7  8  3  0  0  0  0
  8  9  1  0  0  0  0
  9 10  1  0  0  0  0
 10 11  1  0  0  0  0
 11 12  2  0  0  0  0
 11 13  1  0  0  0  0
 13 14  1  0  0  0  0
 13 15  1  0  0  0  0
 13 21  1  0  0  0  0
 15 20  1  0  0  0  0
 15 16  2  0  0  0  0
 16 17  1  0  0  0  0
 17 18  2  0  0  0  0
 18 19  1  0  0  0  0
 19 20  2  0  0  0  0
 21 26  1  0  0  0  0
 21 22  1  0  0  0  0
 22 23  1  0  0  0  0
 23 24  1  0  0  0  0
 24 25  1  0  0  0  0
 25 26  1  0  0  0  0
M  END
$$$$

 OpenBabel10082008492D

 33 35  0  0  1  0  0  0  0  0999 V2000
    1.2103   -2.8934    0.0000 C   0  0  0  0  0  0  0  0  0  0  0  0
    1.9174   -2.1863    0.0000 C   0  0  0  0  0  0  0  0  0  0  0  0
    1.6586   -1.2204    0.0000 O   0  0  0  0  0  0  0  0  0  0  0  0
    2.3657   -0.5132    0.0000 C   0  0  0  0  0  0  0  0  0  0  0  0
    3.3317   -0.7721    0.0000 O   0  0  0  0  0  0  0  0  0  0  0  0
    2.1069    0.4527    0.0000 C   0  0  2  0  0  0  0  0  0  0  0  0
    3.0728    0.7115    0.0000 H   0  0  0  0  0  0  0  0  0  0  0  0
    1.8481    1.4186    0.0000 C   0  0  0  0  0  0  0  0  0  0  0  0
    2.5552    2.1257    0.0000 C   0  0  0  0  0  0  0  0  0  0  0  0
    3.5211    1.8669    0.0000 C   0  0  0  0  0  0  0  0  0  0  0  0
    4.2282    2.5740    0.0000 C   0  0  0  0  0  0  0  0  0  0  0  0
    5.1942    2.3152    0.0000 C   0  0  0  0  0  0  0  0  0  0  0  0
    5.4530    1.3493    0.0000 C   0  0  0  0  0  0  0  0  0  0  0  0
    4.7459    0.6421    0.0000 C   0  0  0  0  0  0  0  0  0  0  0  0
    3.7799    0.9010    0.0000 C   0  0  0  0  0  0  0  0  0  0  0  0
    1.1410    0.1939    0.0000 N   0  0  0  0  0  0  0  0  0  0  0  0
    0.4339    0.9010    0.0000 C   0  0  1  0  0  0  0  0  0  0  0  0
    0.6554    1.8761    0.0000 H   0  0  0  0  0  0  0  0  0  0  0  0
   -0.0000    1.8019    0.0000 C   0  0  0  0  0  0  0  0  0  0  0  0
   -0.9749    2.0245    0.0000 C   0  0  0  0  0  0  0  0  0  0  0  0
   -1.7568    1.4010    0.0000 C   0  0  0  0  0  0  0  0  0  0  0  0
   -2.6228    1.9010    0.0000 C   0  0  0  0  0  0  0  0  0  0  0  0
   -3.4888    1.4010    0.0000 C   0  0  0  0  0  0  0  0  0  0  0  0
   -3.4888    0.4010    0.0000 C   0  0  0  0  0  0  0  0  0  0  0  0
   -2.6228   -0.0990    0.0000 C   0  0  0  0  0  0  0  0  0  0  0  0
   -1.7568    0.4010    0.0000 C   0  0  0  0  0  0  0  0  0  0  0  0
   -0.9749   -0.2225    0.0000 N   0  0  0  0  0  0  0  0  0  0  0  0
   -1.1974   -1.1974    0.0000 C   0  0  0  0  0  0  0  0  0  0  0  0
   -2.1530   -1.4922    0.0000 C   0  0  0  0  0  0  0  0  0  0  0  0
   -2.3755   -2.4671    0.0000 O   0  0  0  0  0  0  0  0  0  0  0  0
   -2.8861   -0.8120    0.0000 O   0  0  0  0  0  0  0  0  0  0  0  0
    0.0000    0.0000    0.0000 C   0  0  0  0  0  0  0  0  0  0  0  0
    0.6235   -0.7818    0.0000 O   0  0  0  0  0  0  0  0  0  0  0  0
  1  2  1  0  0  0  0
  2  3  1  0  0  0  0
  3  4  1  0  0  0  0
  4  5  2  0  0  0  0
  4  6  1  0  0  0  0
  6  7  1  6  0  0  0
  6  8  1  0  0  0  0
  6 16  1  0  0  0  0
  8  9  1  0  0  0  0
  9 10  1  0  0  0  0
 10 15  1  0  0  0  0
 10 11  2  0  0  0  0
 11 12  1  0  0  0  0
 12 13  2  0  0  0  0
 13 14  1  0  0  0  0
 14 15  2  0  0  0  0
 16 17  1  0  0  0  0
 17 18  1  1  0  0  0
 17 32  1  0  0  0  0
 17 19  1  0  0  0  0
 19 20  1  0  0  0  0
 20 21  1  0  0  0  0
 21 26  1  0  0  0  0
 21 22  2  0  0  0  0
 22 23  1  0  0  0  0
 23 24  2  0  0  0  0
 24 25  1  0  0  0  0
 25 26  2  0  0  0  0
 26 27  1  0  0  0  0
 27 28  1  0  0  0  0
 27 32  1  0  0  0  0
 28 29  1  0  0  0  0
 29 30  2  0  0  0  0
 29 31  1  0  0  0  0
 32 33  2  0  0  0  0
M  END
$$$$

 OpenBabel10082008492D

 21 22  0  0  0  0  0  0  0  0999 V2000
    0.8660   -2.5000    0.0000 O   0  0  0  0  0  0  0  0  0  0  0  0
    0.8660   -1.5000    0.0000 C   0  0  0  0  0  0  0  0  0  0  0  0
    1.7321   -1.0000    0.0000 N   0  0  0  0  0  0  0  0  0  0  0  0
    2.5981   -1.5000    0.0000 C   0  0  0  0  0  0  0  0  0  0  0  0
    2.5981   -2.5000    0.0000 C   0  0  0  0  0  0  0  0  0  0  0  0
    3.4641   -3.0000    0.0000 C   0  0  0  0  0  0  0  0  0  0  0  0
    4.3301   -2.5000    0.0000 C   0  0  0  0  0  0  0  0  0  0  0  0
    5.1962   -3.0000    0.0000 N   0  3  0  0  0  0  0  0  0  0  0  0
    6.0622   -2.5000    0.0000 O   0  0  0  0  0  0  0  0  0  0  0  0
    5.1962   -4.0000    0.0000 O   0  5  0  0  0  0  0  0  0  0  0  0
    4.3301   -1.5000    0.0000 C   0  0  0  0  0  0  0  0  0  0  0  0
    3.4641   -1.0000    0.0000 C   0  0  0  0  0  0  0  0  0  0  0  0
    3.4641    0.0000    0.0000 Cl  0  0  0  0  0  0  0  0  0  0  0  0
    0.0000   -1.0000    0.0000 C   0  0  0  0  0  0  0  0  0  0  0  0
   -0.8660   -1.5000    0.0000 C   0  0  0  0  0  0  0  0  0  0  0  0
   -1.7321   -1.0000    0.0000 C   0  0  0  0  0  0  0  0  0  0  0  0
   -2.5981   -1.5000    0.0000 Cl  0  0  0  0  0  0  0  0  0  0  0  0
   -1.7321   -0.0000    0.0000 C   0  0  0  0  0  0  0  0  0  0  0  0
   -0.8660    0.5000    0.0000 C   0  0  0  0  0  0  0  0  0  0  0  0
   -0.0000   -0.0000    0.0000 C   0  0  0  0  0  0  0  0  0  0  0  0
    0.8660    0.5000    0.0000 O   0  0  0  0  0  0  0  0  0  0  0  0
  1  2  2  0  0  0  0
  2  3  1  0  0  0  0
  2 14  1  0  0  0  0
  3  4  1  0  0  0  0
  4 12  1  0  0  0  0
  4  5  2  0  0  0  0
  5  6  1  0  0  0  0
  6  7  2  0  0  0  0
  7  8  1  0  0  0  0
  7 11  1  0  0  0  0
  8  9  2  0  0  0  0
  8 10  1  0  0  0  0
 11 12  2  0  0  0  0
 12 13  1  0  0  0  0
 14 20  1  0  0  0  0
 14 15  2  0  0  0  0
 15 16  1  0  0  0  0
 16 17  1  0  0  0  0
 16 18  2  0  0  0  0
 18 19  1  0  0  0  0
 19 20  2  0  0  0  0
 20 21  1  0  0  0  0
M  CHG  2   8   1  10  -1
M  END
$$$$

 OpenBabel10082008492D

 71 76  0  0  1  0  0  0  0  0999 V2000
    4.7092    2.7713    0.0000 C   0  0  0  0  0  0  0  0  0  0  0  0
    5.3612    3.4954    0.0000 O   0  0  0  0  0  0  0  0  0  0  0  0
    5.0601    4.4221    0.0000 C   0  0  0  0  0  0  0  0  0  0  0  0
    5.7121    5.1462    0.0000 O   0  0  0  0  0  0  0  0  0  0  0  0
    4.1070    4.6247    0.0000 N   0  0  0  0  0  0  0  0  0  0  0  0
    3.4551    3.9006    0.0000 C   0  0  2  0  0  0  0  0  0  0  0  0
    4.1791    3.2486    0.0000 H   0  0  0  0  0  0  0  0  0  0  0  0
    2.8031    3.1765    0.0000 C   0  0  0  0  0  0  0  0  0  0  0  0
    1.8500    3.3791    0.0000 O   0  0  0  0  0  0  0  0  0  0  0  0
    3.1042    2.2498    0.0000 N   0  0  0  0  0  0  0  0  0  0  0  0
    4.0308    1.9487    0.0000 C   0  0  0  0  0  0  0  0  0  0  0  0
    4.0308    0.9744    0.0000 C   0  0  0  0  0  0  0  0  0  0  0  0
    3.1042    0.6733    0.0000 C   0  0  0  0  0  0  0  0  0  0  0  0
    2.5315    1.4615    0.0000 C   0  0  1  0  0  0  0  0  0  0  0  0
    1.6876    1.9487    0.0000 H   0  0  0  0  0  0  0  0  0  0  0  0
    1.6876    0.9744    0.0000 C   0  0  0  0  0  0  0  0  0  0  0  0
    0.8438    1.4615    0.0000 O   0  0  0  0  0  0  0  0  0  0  0  0
    1.6876   -0.0000    0.0000 N   0  0  0  0  0  0  0  0  0  0  0  0
    0.8438   -0.4872    0.0000 C   0  0  0  0  0  0  0  0  0  0  0  0
    0.8438   -1.4615    0.0000 C   0  0  0  0  0  0  0  0  0  0  0  0
   -0.0000   -1.9487    0.0000 C   0  0  0  0  0  0  0  0  0  0  0  0
   -0.8438   -1.4615    0.0000 C   0  0  0  0  0  0  0  0  0  0  0  0
   -2.5315   -2.4359    0.0000 C   0  0  2  0  0  0  0  0  0  0  0  0
   -2.2219   -3.3598    0.0000 H   0  0  0  0  0  0  0  0  0  0  0  0
   -3.2887   -3.0491    0.0000 C   0  0  0  0  0  0  0  0  0  0  0  0
   -4.1058   -2.5184    0.0000 C   0  0  0  0  0  0  0  0  0  0  0  0
   -3.8537   -1.5772    0.0000 C   0  0  1  0  0  0  0  0  0  0  0  0
   -4.0061   -0.6149    0.0000 H   0  0  0  0  0  0  0  0  0  0  0  0
   -4.7633   -1.2281    0.0000 C   0  0  0  0  0  0  0  0  0  0  0  0
   -5.5205   -1.8413    0.0000 C   0  0  0  0  0  0  0  0  0  0  0  0
   -6.4302   -1.4921    0.0000 C   0  0  0  0  0  0  0  0  0  0  0  0
   -6.5826   -0.5297    0.0000 C   0  0  0  0  0  0  0  0  0  0  0  0
   -7.4922   -0.1805    0.0000 N   0  0  0  0  0  0  0  0  0  0  0  0
   -8.2495   -0.7937    0.0000 C   0  0  0  0  0  0  0  0  0  0  0  0
   -9.1591   -0.4445    0.0000 O   0  0  0  0  0  0  0  0  0  0  0  0
   -7.9446   -2.7184    0.0000 C   0  0  2  0  0  0  0  0  0  0  0  0
   -6.9712   -2.7605    0.0000 H   0  0  0  0  0  0  0  0  0  0  0  0
   -7.6435   -3.6451    0.0000 C   0  0  0  0  0  0  0  0  0  0  0  0
   -8.4318   -4.2178    0.0000 C   0  0  0  0  0  0  0  0  0  0  0  0
   -9.2201   -3.6451    0.0000 C   0  0  0  0  0  0  0  0  0  0  0  0
   -8.9190   -2.7184    0.0000 N   0  0  0  0  0  0  0  0  0  0  0  0
   -9.4917   -1.9302    0.0000 C   0  0  0  0  0  0  0  0  0  0  0  0
   -9.0954   -1.0400    0.0000 O   0  0  0  0  0  0  0  0  0  0  0  0
  -10.4607   -2.0320    0.0000 C   0  0  1  0  0  0  0  0  0  0  0  0
  -10.3588   -3.0010    0.0000 H   0  0  0  0  0  0  0  0  0  0  0  0
  -11.4297   -2.1339    0.0000 N   0  0  0  0  0  0  0  0  0  0  0  0
  -11.8260   -3.0240    0.0000 C   0  0  0  0  0  0  0  0  0  0  0  0
  -11.2533   -3.8123    0.0000 O   0  0  0  0  0  0  0  0  0  0  0  0
  -12.7950   -3.1258    0.0000 O   0  0  0  0  0  0  0  0  0  0  0  0
  -13.1914   -4.0160    0.0000 C   0  0  0  0  0  0  0  0  0  0  0  0
  -10.5625   -1.0630    0.0000 C   0  0  0  0  0  0  0  0  0  0  0  0
  -11.4527   -0.6667    0.0000 C   0  0  0  0  0  0  0  0  0  0  0  0
   -9.7743   -0.4903    0.0000 C   0  0  0  0  0  0  0  0  0  0  0  0
   -5.8254    0.0835    0.0000 C   0  0  0  0  0  0  0  0  0  0  0  0
   -4.9157   -0.2657    0.0000 C   0  0  0  0  0  0  0  0  0  0  0  0
   -2.8806   -1.5263    0.0000 N   0  0  0  0  0  0  0  0  0  0  0  0
   -2.3500   -0.7091    0.0000 C   0  0  0  0  0  0  0  0  0  0  0  0
   -2.7923    0.1591    0.0000 C   0  0  0  0  0  0  0  0  0  0  0  0
   -2.2616    0.9762    0.0000 C   0  0  0  0  0  0  0  0  0  0  0  0
   -1.2886    0.9252    0.0000 C   0  0  0  0  0  0  0  0  0  0  0  0
   -0.7579    1.7424    0.0000 C   0  0  0  0  0  0  0  0  0  0  0  0
   -0.7069    2.7154    0.0000 C   0  0  0  0  0  0  0  0  0  0  0  0
   -1.5751    2.2731    0.0000 C   0  0  0  0  0  0  0  0  0  0  0  0
    0.2151    1.6914    0.0000 C   0  0  0  0  0  0  0  0  0  0  0  0
   -0.8463    0.0571    0.0000 C   0  0  0  0  0  0  0  0  0  0  0  0
   -1.3769   -0.7601    0.0000 C   0  0  0  0  0  0  0  0  0  0  0  0
   -0.8438   -0.4872    0.0000 C   0  0  0  0  0  0  0  0  0  0  0  0
    0.0000    0.0000    0.0000 C   0  0  0  0  0  0  0  0  0  0  0  0
    2.7310    4.5525    0.0000 C   0  0  0  0  0  0  0  0  0  0  0  0
    1.8043    4.2515    0.0000 C   0  0  0  0  0  0  0  0  0  0  0  0
    2.9335    5.5056    0.0000 C   0  0  0  0  0  0  0  0  0  0  0  0
  1  2  1  0  0  0  0
  2  3  1  0  0  0  0
  3  4  2  0  0  0  0
  3  5  1  0  0  0  0
  5  6  1  0  0  0  0
  6  7  1  1  0  0  0
  6  8  1  0  0  0  0
  6 69  1  0  0  0  0
  8  9  2  0  0  0  0
  8 10  1  0  0  0  0
 10 14  1  0  0  0  0
 10 11  1  0  0  0  0
 11 12  1  0  0  0  0
 12 13  1  0  0  0  0
 13 14  1  0  0  0  0
 14 15  1  6  0  0  0
 14 16  1  0  0  0  0
 16 17  2  0  0  0  0
 16 18  1  0  0  0  0
 18 19  1  0  0  0  0
 19 68  1  0  0  0  0
 19 20  2  0  0  0  0
 20 21  1  0  0  0  0
 21 22  2  0  0  0  0
 22 23  1  0  0  0  0
 22 67  1  0  0  0  0
 23 24  1  1  0  0  0
 23 56  1  0  0  0  0
 23 25  1  0  0  0  0
 25 26  1  0  0  0  0
 26 27  1  0  0  0  0
 27 28  1  6  0  0  0
 27 29  1  0  0  0  0
 27 56  1  0  0  0  0
 29 55  1  0  0  0  0
 29 30  2  0  0  0  0
 30 31  1  0  0  0  0
 31 32  2  0  0  0  0
 32 33  1  0  0  0  0
 32 54  1  0  0  0  0
 33 34  1  0  0  0  0
 34 35  2  0  0  0  0
 34 36  1  0  0  0  0
 36 37  1  1  0  0  0
 36 41  1  0  0  0  0
 36 38  1  0  0  0  0
 38 39  1  0  0  0  0
 39 40  1  0  0  0  0
 40 41  1  0  0  0  0
 41 42  1  0  0  0  0
 42 43  2  0  0  0  0
 42 44  1  0  0  0  0
 44 45  1  6  0  0  0
 44 46  1  0  0  0  0
 44 51  1  0  0  0  0
 46 47  1  0  0  0  0
 47 48  2  0  0  0  0
 47 49  1  0  0  0  0
 49 50  1  0  0  0  0
 51 52  1  0  0  0  0
 51 53  1  0  0  0  0
 54 55  2  0  0  0  0
 56 57  1  0  0  0  0
 57 66  1  0  0  0  0
 57 58  2  0  0  0  0
 58 59  1  0  0  0  0
 59 60  2  0  0  0  0
 60 61  1  0  0  0  0
 60 65  1  0  0  0  0
 61 62  1  0  0  0  0
 61 63  1  0  0  0  0
 61 64  1  0  0  0  0
 65 66  2  0  0  0  0
 67 68  2  0  0  0  0
 69 70  1  0  0  0  0
 69 71  1  0  0  0  0
M  END
$$$$

 OpenBabel10082008492D

 15 14  0  0  1  0  0  0  0  0999 V2000
    5.0222   -3.8479    0.0000 O   0  0  0  0  0  0  0  0  0  0  0  0
    4.4344   -3.0388    0.0000 C   0  0  0  0  0  0  0  0  0  0  0  0
    3.4344   -3.0388    0.0000 O   0  0  0  0  0  0  0  0  0  0  0  0
    3.1254   -2.0878    0.0000 C   0  0  2  0  0  0  0  0  0  0  0  0
    2.4563   -1.3446    0.0000 H   0  0  0  0  0  0  0  0  0  0  0  0
    2.1473   -2.2957    0.0000 C   0  0  1  0  0  0  0  0  0  0  0  0
    1.4041   -2.9648    0.0000 H   0  0  0  0  0  0  0  0  0  0  0  0
    2.3552   -3.2738    0.0000 O   0  0  0  0  0  0  0  0  0  0  0  0
    1.4781   -1.5526    0.0000 C   0  0  0  0  0  0  0  0  0  0  0  0
    0.5000   -1.7605    0.0000 O   0  0  0  0  0  0  0  0  0  0  0  0
    3.9344   -1.5000    0.0000 C   0  0  0  0  0  0  0  0  0  0  0  0
    3.9344   -0.5000    0.0000 O   0  5  0  0  0  0  0  0  0  0  0  0
    4.7435   -2.0878    0.0000 C   0  0  0  0  0  0  0  0  0  0  0  0
    5.6945   -1.7788    0.0000 O   0  0  0  0  0  0  0  0  0  0  0  0
   -2.3551   -0.1351    0.0000 Na  0  3  0  0  0 15  0  0  0  0  0  0
  1  2  2  0  0  0  0
  2 13  1  0  0  0  0
  2  3  1  0  0  0  0
  3  4  1  0  0  0  0
  4  5  1  1  0  0  0
  4  6  1  0  0  0  0
  4 11  1  0  0  0  0
  6  7  1  6  0  0  0
  6  8  1  0  0  0  0
  6  9  1  0  0  0  0
  9 10  1  0  0  0  0
 11 12  1  0  0  0  0
 11 13  2  0  0  0  0
 13 14  1  0  0  0  0
M  CHG  2  12  -1  15   1
M  END
$$$$

 OpenBabel10082008492D

 35 36  0  0  1  0  0  0  0  0999 V2000
   -2.4641   -0.0000    0.0000 C   0  0  0  0  0  0  0  0  0  0  0  0
   -2.4641   -1.0000    0.0000 C   0  0  0  0  0  0  0  0  0  0  0  0
   -3.3301   -1.5000    0.0000 C   0  0  0  0  0  0  0  0  0  0  0  0
   -1.5981   -1.5000    0.0000 C   0  0  0  0  0  0  0  0  0  0  0  0
   -0.7321   -1.0000    0.0000 N   0  0  0  0  0  0  0  0  0  0  0  0
    0.1340   -1.5000    0.0000 C   0  0  0  0  0  0  0  0  0  0  0  0
    1.0000   -1.0000    0.0000 N   0  0  0  0  0  0  0  0  0  0  0  0
    1.8660   -1.5000    0.0000 C   0  0  0  0  0  0  0  0  0  0  0  0
    1.0000   -0.0000    0.0000 S   0  0  0  0  0  0  0  0  0  0  0  0
    2.0000   -0.0000    0.0000 C   0  0  0  0  0  0  0  0  0  0  0  0
    1.0000    1.0000    0.0000 O   0  0  0  0  0  0  0  0  0  0  0  0
    0.0000   -0.0000    0.0000 O   0  0  0  0  0  0  0  0  0  0  0  0
    0.1340   -2.5000    0.0000 N   0  0  0  0  0  0  0  0  0  0  0  0
   -0.7321   -3.0000    0.0000 C   0  0  0  0  0  0  0  0  0  0  0  0
   -0.7321   -4.0000    0.0000 C   0  0  0  0  0  0  0  0  0  0  0  0
    0.1340   -4.5000    0.0000 C   0  0  0  0  0  0  0  0  0  0  0  0
    0.1340   -5.5000    0.0000 C   0  0  0  0  0  0  0  0  0  0  0  0
   -0.7321   -6.0000    0.0000 C   0  0  0  0  0  0  0  0  0  0  0  0
   -0.7321   -7.0000    0.0000 F   0  0  0  0  0  0  0  0  0  0  0  0
   -1.5981   -5.5000    0.0000 C   0  0  0  0  0  0  0  0  0  0  0  0
   -1.5981   -4.5000    0.0000 C   0  0  0  0  0  0  0  0  0  0  0  0
   -1.5981   -2.5000    0.0000 C   0  0  0  0  0  0  0  0  0  0  0  0
   -2.4641   -3.0000    0.0000 C   0  0  0  0  0  0  0  0  0  0  0  0
   -2.4641   -4.0000    0.0000 C   0  0  0  0  0  0  0  0  0  0  0  0
   -3.3301   -4.5000    0.0000 C   0  0  1  0  0  0  0  0  0  0  0  0
   -3.8301   -5.3660    0.0000 H   0  0  0  0  0  0  0  0  0  0  0  0
   -2.8301   -5.3660    0.0000 O   0  0  0  0  0  0  0  0  0  0  0  0
   -4.1962   -4.0000    0.0000 C   0  0  0  0  0  0  0  0  0  0  0  0
   -5.0622   -4.5000    0.0000 C   0  0  1  0  0  0  0  0  0  0  0  0
   -5.5622   -5.3660    0.0000 H   0  0  0  0  0  0  0  0  0  0  0  0
   -4.5622   -5.3660    0.0000 O   0  0  0  0  0  0  0  0  0  0  0  0
   -5.9282   -4.0000    0.0000 C   0  0  0  0  0  0  0  0  0  0  0  0
   -6.7942   -4.5000    0.0000 C   0  0  0  0  0  0  0  0  0  0  0  0
   -7.6603   -4.0000    0.0000 O   0  0  0  0  0  0  0  0  0  0  0  0
   -6.7942   -5.5000    0.0000 O   0  0  0  0  0  0  0  0  0  0  0  0
  1  2  1  0  0  0  0
  2  3  1  0  0  0  0
  2  4  1  0  0  0  0
  4 22  1  0  0  0  0
  4  5  2  0  0  0  0
  5  6  1  0  0  0  0
  6  7  1  0  0  0  0
  6 13  2  0  0  0  0
  7  8  1  0  0  0  0
  7  9  1  0  0  0  0
  9 10  1  0  0  0  0
  9 11  2  0  0  0  0
  9 12  2  0  0  0  0
 13 14  1  0  0  0  0
 14 15  1  0  0  0  0
 14 22  2  0  0  0  0
 15 21  1  0  0  0  0
 15 16  2  0  0  0  0
 16 17  1  0  0  0  0
 17 18  2  0  0  0  0
 18 19  1  0  0  0  0
 18 20  1  0  0  0  0
 20 21  2  0  0  0  0
 22 23  1  0  0  0  0
 23 24  2  0  0  0  0
 24 25  1  0  0  0  0
 25 26  1  6  0  0  0
 25 27  1  0  0  0  0
 25 28  1  0  0  0  0
 28 29  1  0  0  0  0
 29 30  1  6  0  0  0
 29 31  1  0  0  0  0
 29 32  1  0  0  0  0
 32 33  1  0  0  0  0
 33 34  2  0  0  0  0
 33 35  1  0  0  0  0
M  END
$$$$

 OpenBabel10082008492D

 21 22  0  0  0  0  0  0  0  0999 V2000
   -4.0000   -1.0000    0.0000 C   0  0  0  0  0  0  0  0  0  0  0  0
   -3.0000   -1.0000    0.0000 C   0  0  0  0  0  0  0  0  0  0  0  0
   -2.5000   -0.1340    0.0000 C   0  0  0  0  0  0  0  0  0  0  0  0
   -1.5000   -0.1340    0.0000 C   0  0  0  0  0  0  0  0  0  0  0  0
   -1.0000   -1.0000    0.0000 C   0  0  0  0  0  0  0  0  0  0  0  0
    0.0000   -1.0000    0.0000 S   0  0  0  0  0  0  0  0  0  0  0  0
    0.0000   -2.0000    0.0000 O   0  0  0  0  0  0  0  0  0  0  0  0
    1.0000   -1.0000    0.0000 O   0  0  0  0  0  0  0  0  0  0  0  0
    0.0000    0.0000    0.0000 N   0  0  0  0  0  0  0  0  0  0  0  0
    0.8660    0.5000    0.0000 C   0  0  0  0  0  0  0  0  0  0  0  0
    0.8660    1.5000    0.0000 O   0  0  0  0  0  0  0  0  0  0  0  0
    1.7321   -0.0000    0.0000 N   0  0  0  0  0  0  0  0  0  0  0  0
    2.5981    0.5000    0.0000 N   0  0  0  0  0  0  0  0  0  0  0  0
    3.4243   -0.0633    0.0000 C   0  0  0  0  0  0  0  0  0  0  0  0
    4.3799    0.2314    0.0000 C   0  0  0  0  0  0  0  0  0  0  0  0
    4.7452    1.1623    0.0000 C   0  0  0  0  0  0  0  0  0  0  0  0
    4.2452    2.0283    0.0000 C   0  0  0  0  0  0  0  0  0  0  0  0
    3.2564    2.1774    0.0000 C   0  0  0  0  0  0  0  0  0  0  0  0
    2.5233    1.4972    0.0000 C   0  0  0  0  0  0  0  0  0  0  0  0
   -1.5000   -1.8660    0.0000 C   0  0  0  0  0  0  0  0  0  0  0  0
   -2.5000   -1.8660    0.0000 C   0  0  0  0  0  0  0  0  0  0  0  0
  1  2  1  0  0  0  0
  2 21  1  0  0  0  0
  2  3  2  0  0  0  0
  3  4  1  0  0  0  0
  4  5  2  0  0  0  0
  5  6  1  0  0  0  0
  5 20  1  0  0  0  0
  6  7  2  0  0  0  0
  6  8  2  0  0  0  0
  6  9  1  0  0  0  0
  9 10  1  0  0  0  0
 10 11  2  0  0  0  0
 10 12  1  0  0  0  0
 12 13  1  0  0  0  0
 13 19  1  0  0  0  0
 13 14  1  0  0  0  0
 14 15  1  0  0  0  0
 15 16  1  0  0  0  0
 16 17  1  0  0  0  0
 17 18  1  0  0  0  0
 18 19  1  0  0  0  0
 20 21  2  0  0  0  0
M  END
$$$$

 OpenBabel10082008492D

 19 20  0  0  0  0  0  0  0  0999 V2000
    0.8660    1.5000    0.0000 C   0  0  0  0  0  0  0  0  0  0  0  0
    0.8660    0.5000    0.0000 C   0  0  0  0  0  0  0  0  0  0  0  0
    1.7321   -0.0000    0.0000 C   0  0  0  0  0  0  0  0  0  0  0  0
    1.7321   -1.0000    0.0000 C   0  0  0  0  0  0  0  0  0  0  0  0
    0.8660   -1.5000    0.0000 C   0  0  0  0  0  0  0  0  0  0  0  0
    0.8660   -2.5000    0.0000 Cl  0  0  0  0  0  0  0  0  0  0  0  0
    0.0000   -1.0000    0.0000 C   0  0  0  0  0  0  0  0  0  0  0  0
   -0.8660   -1.5000    0.0000 N   0  0  0  0  0  0  0  0  0  0  0  0
   -1.7321   -1.0000    0.0000 C   0  0  0  0  0  0  0  0  0  0  0  0
   -1.7321   -0.0000    0.0000 C   0  0  0  0  0  0  0  0  0  0  0  0
   -2.5981    0.5000    0.0000 C   0  0  0  0  0  0  0  0  0  0  0  0
   -3.4641   -0.0000    0.0000 C   0  0  0  0  0  0  0  0  0  0  0  0
   -3.4641   -1.0000    0.0000 C   0  0  0  0  0  0  0  0  0  0  0  0
   -2.5981   -1.5000    0.0000 C   0  0  0  0  0  0  0  0  0  0  0  0
   -2.5981   -2.5000    0.0000 C   0  0  0  0  0  0  0  0  0  0  0  0
   -1.7321   -3.0000    0.0000 O   0  0  0  0  0  0  0  0  0  0  0  0
   -3.4641   -3.0000    0.0000 O   0  0  0  0  0  0  0  0  0  0  0  0
    0.0000   -0.0000    0.0000 C   0  0  0  0  0  0  0  0  0  0  0  0
   -0.8660    0.5000    0.0000 Cl  0  0  0  0  0  0  0  0  0  0  0  0
  1  2  1  0  0  0  0
  2 18  1  0  0  0  0
  2  3  2  0  0  0  0
  3  4  1  0  0  0  0
  4  5  2  0  0  0  0
  5  6  1  0  0  0  0
  5  7  1  0  0  0  0
  7  8  1  0  0  0  0
  7 18  2  0  0  0  0
  8  9  1  0  0  0  0
  9 14  1  0  0  0  0
  9 10  2  0  0  0  0
 10 11  1  0  0  0  0
 11 12  2  0  0  0  0
 12 13  1  0  0  0  0
 13 14  2  0  0  0  0
 14 15  1  0  0  0  0
 15 16  2  0  0  0  0
 15 17  1  0  0  0  0
 18 19  1  0  0  0  0
M  END
$$$$

 OpenBabel10082008492D

 21 24  0  0  0  0  0  0  0  0999 V2000
   -3.5289   -1.8653    0.0000 Cl  0  0  0  0  0  0  0  0  0  0  0  0
   -2.6629   -1.3653    0.0000 C   0  0  0  0  0  0  0  0  0  0  0  0
   -1.7969   -1.8653    0.0000 C   0  0  0  0  0  0  0  0  0  0  0  0
   -0.9309   -1.3653    0.0000 C   0  0  0  0  0  0  0  0  0  0  0  0
   -0.9309   -0.3653    0.0000 C   0  0  0  0  0  0  0  0  0  0  0  0
   -1.7969    0.1347    0.0000 C   0  0  0  0  0  0  0  0  0  0  0  0
   -2.6629   -0.3653    0.0000 C   0  0  0  0  0  0  0  0  0  0  0  0
   -1.9459    1.1235    0.0000 C   0  0  0  0  0  0  0  0  0  0  0  0
   -2.9015    1.4182    0.0000 C   0  0  0  0  0  0  0  0  0  0  0  0
   -3.6346    0.7381    0.0000 C   0  0  0  0  0  0  0  0  0  0  0  0
   -4.5901    1.0328    0.0000 C   0  0  0  0  0  0  0  0  0  0  0  0
   -4.8127    2.0078    0.0000 C   0  0  0  0  0  0  0  0  0  0  0  0
   -4.0796    2.6879    0.0000 C   0  0  0  0  0  0  0  0  0  0  0  0
   -3.1240    2.3932    0.0000 C   0  0  0  0  0  0  0  0  0  0  0  0
   -1.2658    1.8565    0.0000 N   0  0  0  0  0  0  0  0  0  0  0  0
   -0.2686    1.7818    0.0000 C   0  0  0  0  0  0  0  0  0  0  0  0
    0.2948    0.9556    0.0000 C   0  0  0  0  0  0  0  0  0  0  0  0
    1.2946    0.9705    0.0000 N   0  0  0  0  0  0  0  0  0  0  0  0
    1.6179    0.0242    0.0000 N   0  0  0  0  0  0  0  0  0  0  0  0
    0.8177   -0.5756    0.0000 C   0  0  0  0  0  0  0  0  0  0  0  0
    0.0000   -0.0000    0.0000 N   0  0  0  0  0  0  0  0  0  0  0  0
  1  2  1  0  0  0  0
  2  7  1  0  0  0  0
  2  3  2  0  0  0  0
  3  4  1  0  0  0  0
  4  5  2  0  0  0  0
  5 21  1  0  0  0  0
  5  6  1  0  0  0  0
  6  7  2  0  0  0  0
  6  8  1  0  0  0  0
  8  9  1  0  0  0  0
  8 15  2  0  0  0  0
  9 14  1  0  0  0  0
  9 10  2  0  0  0  0
 10 11  1  0  0  0  0
 11 12  2  0  0  0  0
 12 13  1  0  0  0  0
 13 14  2  0  0  0  0
 15 16  1  0  0  0  0
 16 17  1  0  0  0  0
 17 21  1  0  0  0  0
 17 18  2  0  0  0  0
 18 19  1  0  0  0  0
 19 20  2  0  0  0  0
 20 21  1  0  0  0  0
M  END
$$$$

 OpenBabel10082008492D

 18 18  0  0  0  0  0  0  0  0999 V2000
   -0.7321   -4.0000    0.0000 C   0  0  0  0  0  0  0  0  0  0  0  0
    0.1340   -4.5000    0.0000 C   0  0  0  0  0  0  0  0  0  0  0  0
    1.0000   -4.0000    0.0000 C   0  0  0  0  0  0  0  0  0  0  0  0
    1.0000   -3.0000    0.0000 C   0  0  0  0  0  0  0  0  0  0  0  0
    1.8660   -2.5000    0.0000 N   0  0  0  0  0  0  0  0  0  0  0  0
    1.8660   -1.5000    0.0000 C   0  0  0  0  0  0  0  0  0  0  0  0
    2.7321   -1.0000    0.0000 O   0  0  0  0  0  0  0  0  0  0  0  0
    1.0000   -1.0000    0.0000 N   0  0  0  0  0  0  0  0  0  0  0  0
    1.0000   -0.0000    0.0000 S   0  0  0  0  0  0  0  0  0  0  0  0
    2.0000    0.0000    0.0000 O   0  0  0  0  0  0  0  0  0  0  0  0
    1.0000    1.0000    0.0000 O   0  0  0  0  0  0  0  0  0  0  0  0
    0.0000   -0.0000    0.0000 C   0  0  0  0  0  0  0  0  0  0  0  0
   -0.5000   -0.8660    0.0000 C   0  0  0  0  0  0  0  0  0  0  0  0
   -1.5000   -0.8660    0.0000 C   0  0  0  0  0  0  0  0  0  0  0  0
   -2.0000    0.0000    0.0000 C   0  0  0  0  0  0  0  0  0  0  0  0
   -3.0000    0.0000    0.0000 C   0  0  0  0  0  0  0  0  0  0  0  0
   -1.5000    0.8660    0.0000 C   0  0  0  0  0  0  0  0  0  0  0  0
   -0.5000    0.8660    0.0000 C   0  0  0  0  0  0  0  0  0  0  0  0
  1  2  1  0  0  0  0
  2  3  1  0  0  0  0
  3  4  1  0  0  0  0
  4  5  1  0  0  0  0
  5  6  1  0  0  0  0
  6  7  2  0  0  0  0
  6  8  1  0  0  0  0
  8  9  1  0  0  0  0
  9 10  2  0  0  0  0
  9 11  2  0  0  0  0
  9 12  1  0  0  0  0
 12 18  1  0  0  0  0
 12 13  2  0  0  0  0
 13 14  1  0  0  0  0
 14 15  2  0  0  0  0
 15 16  1  0  0  0  0
 15 17  1  0  0  0  0
 17 18  2  0  0  0  0
M  END
$$$$

 OpenBabel10082008492D

 29 31  0  0  1  0  0  0  0  0999 V2000
    2.5981   -2.2321    0.0000 C   0  0  0  0  0  0  0  0  0  0  0  0
    3.0981   -1.3660    0.0000 O   0  0  0  0  0  0  0  0  0  0  0  0
    2.5981   -0.5000    0.0000 C   0  0  0  0  0  0  0  0  0  0  0  0
    3.4641   -0.0000    0.0000 C   0  0  0  0  0  0  0  0  0  0  0  0
    3.4641    1.0000    0.0000 C   0  0  0  0  0  0  0  0  0  0  0  0
    4.3301    1.5000    0.0000 C   0  0  0  0  0  0  0  0  0  0  0  0
    5.1962    1.0000    0.0000 C   0  0  0  0  0  0  0  0  0  0  0  0
    5.1962   -0.0000    0.0000 C   0  0  0  0  0  0  0  0  0  0  0  0
    4.3301   -0.5000    0.0000 C   0  0  0  0  0  0  0  0  0  0  0  0
    2.0981    0.3660    0.0000 C   0  0  0  0  0  0  0  0  0  0  0  0
    1.0981    0.3660    0.0000 C   0  0  0  0  0  0  0  0  0  0  0  0
    0.5981    1.2321    0.0000 C   0  0  0  0  0  0  0  0  0  0  0  0
    1.0981    2.0981    0.0000 C   0  0  0  0  0  0  0  0  0  0  0  0
    2.0981    2.0981    0.0000 C   0  0  0  0  0  0  0  0  0  0  0  0
    2.5981    1.2321    0.0000 C   0  0  0  0  0  0  0  0  0  0  0  0
    1.7321   -1.0000    0.0000 C   0  0  2  0  0  0  0  0  0  0  0  0
    1.2321   -0.1340    0.0000 H   0  0  0  0  0  0  0  0  0  0  0  0
    0.8660   -1.5000    0.0000 O   0  0  0  0  0  0  0  0  0  0  0  0
    0.0000   -1.0000    0.0000 C   0  0  0  0  0  0  0  0  0  0  0  0
   -0.8660   -1.5000    0.0000 N   0  0  0  0  0  0  0  0  0  0  0  0
   -1.7321   -1.0000    0.0000 C   0  0  0  0  0  0  0  0  0  0  0  0
   -2.5981   -1.5000    0.0000 C   0  0  0  0  0  0  0  0  0  0  0  0
   -1.7321   -0.0000    0.0000 C   0  0  0  0  0  0  0  0  0  0  0  0
   -0.8660    0.5000    0.0000 C   0  0  0  0  0  0  0  0  0  0  0  0
   -0.8660    1.5000    0.0000 C   0  0  0  0  0  0  0  0  0  0  0  0
    0.0000    0.0000    0.0000 N   0  0  0  0  0  0  0  0  0  0  0  0
    2.2321   -1.8660    0.0000 C   0  0  0  0  0  0  0  0  0  0  0  0
    1.7321   -2.7321    0.0000 O   0  0  0  0  0  0  0  0  0  0  0  0
    3.2321   -1.8660    0.0000 O   0  0  0  0  0  0  0  0  0  0  0  0
  1  2  1  0  0  0  0
  2  3  1  0  0  0  0
  3  4  1  0  0  0  0
  3 10  1  0  0  0  0
  3 16  1  0  0  0  0
  4  9  1  0  0  0  0
  4  5  2  0  0  0  0
  5  6  1  0  0  0  0
  6  7  2  0  0  0  0
  7  8  1  0  0  0  0
  8  9  2  0  0  0  0
 10 15  1  0  0  0  0
 10 11  2  0  0  0  0
 11 12  1  0  0  0  0
 12 13  2  0  0  0  0
 13 14  1  0  0  0  0
 14 15  2  0  0  0  0
 16 17  1  6  0  0  0
 16 18  1  0  0  0  0
 16 27  1  0  0  0  0
 18 19  1  0  0  0  0
 19 26  1  0  0  0  0
 19 20  2  0  0  0  0
 20 21  1  0  0  0  0
 21 22  1  0  0  0  0
 21 23  2  0  0  0  0
 23 24  1  0  0  0  0
 24 25  1  0  0  0  0
 24 26  2  0  0  0  0
 27 28  2  0  0  0  0
 27 29  1  0  0  0  0
M  END
$$$$

 OpenBabel10082008492D

 33 36  0  0  0  0  0  0  0  0999 V2000
   -3.0768    2.3022    0.0000 C   0  0  0  0  0  0  0  0  0  0  0  0
   -4.0714    2.1977    0.0000 C   0  0  0  0  0  0  0  0  0  0  0  0
   -4.4781    1.2841    0.0000 C   0  0  0  0  0  0  0  0  0  0  0  0
   -5.4562    1.0762    0.0000 N   0  0  0  0  0  0  0  0  0  0  0  0
   -5.5608    0.0817    0.0000 N   0  0  0  0  0  0  0  0  0  0  0  0
   -6.4268   -0.4183    0.0000 C   0  0  0  0  0  0  0  0  0  0  0  0
   -7.2928    0.0817    0.0000 C   0  0  0  0  0  0  0  0  0  0  0  0
   -8.1588   -0.4183    0.0000 C   0  0  0  0  0  0  0  0  0  0  0  0
   -9.0249    0.0817    0.0000 N   0  0  0  0  0  0  0  0  0  0  0  0
   -9.8909   -0.4183    0.0000 C   0  0  0  0  0  0  0  0  0  0  0  0
  -10.7569    0.0817    0.0000 C   0  0  0  0  0  0  0  0  0  0  0  0
  -10.7569    1.0817    0.0000 N   0  0  0  0  0  0  0  0  0  0  0  0
  -11.6229    1.5817    0.0000 C   0  0  0  0  0  0  0  0  0  0  0  0
  -12.4890    1.0817    0.0000 C   0  0  0  0  0  0  0  0  0  0  0  0
  -13.3550    1.5817    0.0000 C   0  0  0  0  0  0  0  0  0  0  0  0
  -13.3550    2.5817    0.0000 C   0  0  0  0  0  0  0  0  0  0  0  0
  -12.4890    3.0817    0.0000 C   0  0  0  0  0  0  0  0  0  0  0  0
  -12.4890    4.0817    0.0000 Cl  0  0  0  0  0  0  0  0  0  0  0  0
  -11.6229    2.5817    0.0000 C   0  0  0  0  0  0  0  0  0  0  0  0
   -9.8909    1.5817    0.0000 C   0  0  0  0  0  0  0  0  0  0  0  0
   -9.0249    1.0817    0.0000 C   0  0  0  0  0  0  0  0  0  0  0  0
   -4.6472   -0.3250    0.0000 C   0  0  0  0  0  0  0  0  0  0  0  0
   -4.4393   -1.3032    0.0000 O   0  0  0  0  0  0  0  0  0  0  0  0
   -3.9781    0.4181    0.0000 N   0  0  0  0  0  0  0  0  0  0  0  0
   -2.9836    0.3136    0.0000 C   0  0  0  0  0  0  0  0  0  0  0  0
   -2.5768   -0.6000    0.0000 C   0  0  0  0  0  0  0  0  0  0  0  0
   -1.5823   -0.7045    0.0000 O   0  0  0  0  0  0  0  0  0  0  0  0
   -0.9945    0.1045    0.0000 C   0  0  0  0  0  0  0  0  0  0  0  0
   -1.4013    1.0181    0.0000 C   0  0  0  0  0  0  0  0  0  0  0  0
   -0.8135    1.8271    0.0000 C   0  0  0  0  0  0  0  0  0  0  0  0
    0.1810    1.7226    0.0000 C   0  0  0  0  0  0  0  0  0  0  0  0
    0.5878    0.8090    0.0000 C   0  0  0  0  0  0  0  0  0  0  0  0
    0.0000   -0.0000    0.0000 C   0  0  0  0  0  0  0  0  0  0  0  0
  1  2  1  0  0  0  0
  2  3  1  0  0  0  0
  3 24  1  0  0  0  0
  3  4  2  0  0  0  0
  4  5  1  0  0  0  0
  5  6  1  0  0  0  0
  5 22  1  0  0  0  0
  6  7  1  0  0  0  0
  7  8  1  0  0  0  0
  8  9  1  0  0  0  0
  9 21  1  0  0  0  0
  9 10  1  0  0  0  0
 10 11  1  0  0  0  0
 11 12  1  0  0  0  0
 12 13  1  0  0  0  0
 12 20  1  0  0  0  0
 13 19  1  0  0  0  0
 13 14  2  0  0  0  0
 14 15  1  0  0  0  0
 15 16  2  0  0  0  0
 16 17  1  0  0  0  0
 17 18  1  0  0  0  0
 17 19  2  0  0  0  0
 20 21  1  0  0  0  0
 22 23  2  0  0  0  0
 22 24  1  0  0  0  0
 24 25  1  0  0  0  0
 25 26  1  0  0  0  0
 26 27  1  0  0  0  0
 27 28  1  0  0  0  0
 28 33  1  0  0  0  0
 28 29  2  0  0  0  0
 29 30  1  0  0  0  0
 30 31  2  0  0  0  0
 31 32  1  0  0  0  0
 32 33  2  0  0  0  0
M  END
$$$$

 OpenBabel10082008492D

 26 29  0  0  1  0  0  0  0  0999 V2000
    1.6799    1.9478    0.0000 C   0  0  0  0  0  0  0  0  0  0  0  0
    0.8417    1.4579    0.0000 C   0  0  3  0  0  0  0  0  0  0  0  0
    0.0046    1.9412    0.0000 C   0  0  0  0  0  0  0  0  0  0  0  0
   -0.8321    1.4590    0.0000 O   0  0  0  0  0  0  0  0  0  0  0  0
   -0.8371    0.4833    0.0000 C   0  0  0  0  0  0  0  0  0  0  0  0
   -1.6767   -0.0039    0.0000 C   0  0  0  0  0  0  0  0  0  0  0  0
   -2.5135    0.4775    0.0000 N   0  0  0  0  0  0  0  0  0  0  0  0
   -3.4789    0.4760    0.0000 C   0  0  0  0  0  0  0  0  0  0  0  0
   -3.9629    1.3113    0.0000 C   0  0  0  0  0  0  0  0  0  0  0  0
   -3.4815    2.1481    0.0000 N   0  0  0  0  0  0  0  0  0  0  0  0
   -3.9656    2.9834    0.0000 C   0  0  0  0  0  0  0  0  0  0  0  0
   -2.5162    2.1496    0.0000 C   0  0  0  0  0  0  0  0  0  0  0  0
   -2.0321    1.3143    0.0000 C   0  0  0  0  0  0  0  0  0  0  0  0
   -1.6758   -0.9692    0.0000 C   0  0  0  0  0  0  0  0  0  0  0  0
   -2.5148   -1.4542    0.0000 F   0  0  0  0  0  0  0  0  0  0  0  0
   -0.8386   -1.4526    0.0000 C   0  0  0  0  0  0  0  0  0  0  0  0
    0.0076   -0.9763    0.0000 C   0  0  0  0  0  0  0  0  0  0  0  0
    0.8497   -1.4625    0.0000 C   0  0  0  0  0  0  0  0  0  0  0  0
    0.8561   -2.4315    0.0000 O   0  0  0  0  0  0  0  0  0  0  0  0
    1.6901   -0.9624    0.0000 C   0  0  0  0  0  0  0  0  0  0  0  0
    2.5260   -1.4402    0.0000 C   0  0  0  0  0  0  0  0  0  0  0  0
    2.5302   -2.4030    0.0000 O   0  0  0  0  0  0  0  0  0  0  0  0
    3.3577   -0.9551    0.0000 O   0  0  0  0  0  0  0  0  0  0  0  0
    1.6943    0.0004    0.0000 C   0  0  0  0  0  0  0  0  0  0  0  0
    0.8522    0.4866    0.0000 N   0  0  0  0  0  0  0  0  0  0  0  0
   -0.0000   -0.0000    0.0000 C   0  0  0  0  0  0  0  0  0  0  0  0
  1  2  1  0  0  0  0
  2 25  1  0  0  0  0
  2  3  1  0  0  0  0
  3  4  1  0  0  0  0
  4  5  1  0  0  0  0
  5 26  1  0  0  0  0
  5  6  2  0  0  0  0
  6  7  1  0  0  0  0
  6 14  1  0  0  0  0
  7 13  1  0  0  0  0
  7  8  1  0  0  0  0
  8  9  1  0  0  0  0
  9 10  1  0  0  0  0
 10 11  1  0  0  0  0
 10 12  1  0  0  0  0
 12 13  1  0  0  0  0
 14 15  1  0  0  0  0
 14 16  2  0  0  0  0
 16 17  1  0  0  0  0
 17 26  2  0  0  0  0
 17 18  1  0  0  0  0
 18 19  2  0  0  0  0
 18 20  1  0  0  0  0
 20 21  1  0  0  0  0
 20 24  2  0  0  0  0
 21 22  2  0  0  0  0
 21 23  1  0  0  0  0
 24 25  1  0  0  0  0
 25 26  1  0  0  0  0
M  END
$$$$

 OpenBabel10082008492D

 22 24  0  0  1  0  0  0  0  0999 V2000
    2.5048   -3.2796    0.0000 C   0  0  0  0  0  0  0  0  0  0  0  0
    2.5048   -2.2796    0.0000 N   0  0  0  0  0  0  0  0  0  0  0  0
    1.6388   -1.7796    0.0000 C   0  0  0  0  0  0  0  0  0  0  0  0
    0.7728   -2.2796    0.0000 C   0  0  0  0  0  0  0  0  0  0  0  0
   -0.0933   -1.7796    0.0000 C   0  0  2  0  0  0  0  0  0  0  0  0
   -0.5933   -2.6456    0.0000 H   0  0  0  0  0  0  0  0  0  0  0  0
   -0.9593   -1.2796    0.0000 O   0  0  0  0  0  0  0  0  0  0  0  0
   -1.8253   -1.7796    0.0000 C   0  0  0  0  0  0  0  0  0  0  0  0
   -1.8253   -2.7796    0.0000 C   0  0  0  0  0  0  0  0  0  0  0  0
   -2.6913   -3.2796    0.0000 C   0  0  0  0  0  0  0  0  0  0  0  0
   -3.5574   -2.7796    0.0000 C   0  0  0  0  0  0  0  0  0  0  0  0
   -3.5574   -1.7796    0.0000 C   0  0  0  0  0  0  0  0  0  0  0  0
   -4.4234   -1.2796    0.0000 C   0  0  0  0  0  0  0  0  0  0  0  0
   -4.4234   -0.2796    0.0000 C   0  0  0  0  0  0  0  0  0  0  0  0
   -3.5574    0.2204    0.0000 C   0  0  0  0  0  0  0  0  0  0  0  0
   -2.6913   -0.2796    0.0000 C   0  0  0  0  0  0  0  0  0  0  0  0
   -2.6913   -1.2796    0.0000 C   0  0  0  0  0  0  0  0  0  0  0  0
    0.4067   -0.9135    0.0000 C   0  0  0  0  0  0  0  0  0  0  0  0
    1.4013   -0.8090    0.0000 C   0  0  0  0  0  0  0  0  0  0  0  0
    1.6092    0.1691    0.0000 C   0  0  0  0  0  0  0  0  0  0  0  0
    0.7431    0.6691    0.0000 C   0  0  0  0  0  0  0  0  0  0  0  0
   -0.0000   -0.0000    0.0000 S   0  0  0  0  0  0  0  0  0  0  0  0
  1  2  1  0  0  0  0
  2  3  1  0  0  0  0
  3  4  1  0  0  0  0
  4  5  1  0  0  0  0
  5  6  1  1  0  0  0
  5  7  1  0  0  0  0
  5 18  1  0  0  0  0
  7  8  1  0  0  0  0
  8 17  1  0  0  0  0
  8  9  2  0  0  0  0
  9 10  1  0  0  0  0
 10 11  2  0  0  0  0
 11 12  1  0  0  0  0
 12 17  1  0  0  0  0
 12 13  2  0  0  0  0
 13 14  1  0  0  0  0
 14 15  2  0  0  0  0
 15 16  1  0  0  0  0
 16 17  2  0  0  0  0
 18 22  1  0  0  0  0
 18 19  2  0  0  0  0
 19 20  1  0  0  0  0
 20 21  2  0  0  0  0
 21 22  1  0  0  0  0
M  END
$$$$

 OpenBabel10082008492D

 13 13  0  0  0  0  0  0  0  0999 V2000
   -4.3659   -0.6865    0.0000 C   0  0  0  0  0  0  0  0  0  0  0  0
   -4.2614   -1.6810    0.0000 C   0  0  0  0  0  0  0  0  0  0  0  0
   -5.0704   -2.2688    0.0000 O   0  0  0  0  0  0  0  0  0  0  0  0
   -3.3479   -2.0878    0.0000 N   0  0  0  0  0  0  0  0  0  0  0  0
   -2.5388   -1.5000    0.0000 C   0  0  0  0  0  0  0  0  0  0  0  0
   -2.5388   -0.5000    0.0000 N   0  0  0  0  0  0  0  0  0  0  0  0
   -1.5878   -0.1910    0.0000 N   0  0  0  0  0  0  0  0  0  0  0  0
   -1.0000   -1.0000    0.0000 C   0  0  0  0  0  0  0  0  0  0  0  0
   -0.0000   -1.0000    0.0000 S   0  0  0  0  0  0  0  0  0  0  0  0
    0.0000   -2.0000    0.0000 N   0  0  0  0  0  0  0  0  0  0  0  0
    1.0000   -1.0000    0.0000 O   0  0  0  0  0  0  0  0  0  0  0  0
    0.0000   -0.0000    0.0000 O   0  0  0  0  0  0  0  0  0  0  0  0
   -1.5878   -1.8090    0.0000 S   0  0  0  0  0  0  0  0  0  0  0  0
  1  2  1  0  0  0  0
  2  3  2  0  0  0  0
  2  4  1  0  0  0  0
  4  5  1  0  0  0  0
  5 13  1  0  0  0  0
  5  6  2  0  0  0  0
  6  7  1  0  0  0  0
  7  8  2  0  0  0  0
  8  9  1  0  0  0  0
  8 13  1  0  0  0  0
  9 10  1  0  0  0  0
  9 11  2  0  0  0  0
  9 12  2  0  0  0  0
M  END
$$$$

 OpenBabel10082008492D

 42 46  0  0  1  0  0  0  0  0999 V2000
    3.5981    3.5000    0.0000 C   0  0  0  0  0  0  0  0  0  0  0  0
    2.5981    3.5000    0.0000 C   0  0  0  0  0  0  0  0  0  0  0  0
    3.0981    2.6340    0.0000 C   0  0  0  0  0  0  0  0  0  0  0  0
    2.5981    4.5000    0.0000 O   0  0  0  0  0  0  0  0  0  0  0  0
    1.7321    3.0000    0.0000 C   0  0  0  0  0  0  0  0  0  0  0  0
    0.8660    3.5000    0.0000 C   0  0  0  0  0  0  0  0  0  0  0  0
   -0.0000    3.0000    0.0000 C   0  0  0  0  0  0  0  0  0  0  0  0
   -0.0000    2.0000    0.0000 C   0  0  0  0  0  0  0  0  0  0  0  0
    0.8660    1.5000    0.0000 C   0  0  0  0  0  0  0  0  0  0  0  0
    1.7321    2.0000    0.0000 C   0  0  0  0  0  0  0  0  0  0  0  0
    2.5981    1.5000    0.0000 C   0  0  0  0  0  0  0  0  0  0  0  0
    2.5981    0.5000    0.0000 C   0  0  0  0  0  0  0  0  0  0  0  0
    1.7321    0.0000    0.0000 C   0  0  1  0  0  0  0  0  0  0  0  0
    1.2321    0.8660    0.0000 H   0  0  0  0  0  0  0  0  0  0  0  0
    2.2321   -0.8660    0.0000 S   0  0  0  0  0  0  0  0  0  0  0  0
    3.2321   -0.8660    0.0000 C   0  0  0  0  0  0  0  0  0  0  0  0
    3.7321   -1.7321    0.0000 C   0  0  0  0  0  0  0  0  0  0  0  0
    2.7321   -1.7321    0.0000 C   0  0  0  0  0  0  0  0  0  0  0  0
    2.2321   -2.5981    0.0000 C   0  0  0  0  0  0  0  0  0  0  0  0
    1.2321   -2.5981    0.0000 O   0  0  0  0  0  0  0  0  0  0  0  0
    2.7321   -3.4641    0.0000 O   0  0  0  0  0  0  0  0  0  0  0  0
    4.7321   -1.7321    0.0000 C   0  0  0  0  0  0  0  0  0  0  0  0
    4.2321   -2.5981    0.0000 C   0  0  0  0  0  0  0  0  0  0  0  0
    0.8660   -0.5000    0.0000 C   0  0  0  0  0  0  0  0  0  0  0  0
    0.8660   -1.5000    0.0000 C   0  0  0  0  0  0  0  0  0  0  0  0
    0.0000   -2.0000    0.0000 C   0  0  0  0  0  0  0  0  0  0  0  0
   -0.8660   -1.5000    0.0000 C   0  0  0  0  0  0  0  0  0  0  0  0
   -0.8660   -0.5000    0.0000 C   0  0  0  0  0  0  0  0  0  0  0  0
   -1.7321   -0.0000    0.0000 C   0  0  0  0  0  0  0  0  0  0  0  0
   -2.5981   -0.5000    0.0000 C   0  0  0  0  0  0  0  0  0  0  0  0
   -3.4641   -0.0000    0.0000 C   0  0  0  0  0  0  0  0  0  0  0  0
   -4.3301   -0.5000    0.0000 C   0  0  0  0  0  0  0  0  0  0  0  0
   -5.1962   -0.0000    0.0000 C   0  0  0  0  0  0  0  0  0  0  0  0
   -5.1962    1.0000    0.0000 C   0  0  0  0  0  0  0  0  0  0  0  0
   -6.0622    1.5000    0.0000 C   0  0  0  0  0  0  0  0  0  0  0  0
   -6.0622    2.5000    0.0000 C   0  0  0  0  0  0  0  0  0  0  0  0
   -5.1962    3.0000    0.0000 C   0  0  0  0  0  0  0  0  0  0  0  0
   -5.1962    4.0000    0.0000 Cl  0  0  0  0  0  0  0  0  0  0  0  0
   -4.3301    2.5000    0.0000 C   0  0  0  0  0  0  0  0  0  0  0  0
   -4.3301    1.5000    0.0000 C   0  0  0  0  0  0  0  0  0  0  0  0
   -3.4641    1.0000    0.0000 N   0  0  0  0  0  0  0  0  0  0  0  0
   -0.0000   -0.0000    0.0000 C   0  0  0  0  0  0  0  0  0  0  0  0
  1  2  1  0  0  0  0
  2  3  1  0  0  0  0
  2  4  1  0  0  0  0
  2  5  1  0  0  0  0
  5 10  1  0  0  0  0
  5  6  2  0  0  0  0
  6  7  1  0  0  0  0
  7  8  2  0  0  0  0
  8  9  1  0  0  0  0
  9 10  2  0  0  0  0
 10 11  1  0  0  0  0
 11 12  1  0  0  0  0
 12 13  1  0  0  0  0
 13 14  1  6  0  0  0
 13 15  1  0  0  0  0
 13 24  1  0  0  0  0
 15 16  1  0  0  0  0
 16 17  1  0  0  0  0
 17 23  1  0  0  0  0
 17 18  1  0  0  0  0
 17 22  1  0  0  0  0
 18 19  1  0  0  0  0
 19 20  2  0  0  0  0
 19 21  1  0  0  0  0
 22 23  1  0  0  0  0
 24 42  1  0  0  0  0
 24 25  2  0  0  0  0
 25 26  1  0  0  0  0
 26 27  2  0  0  0  0
 27 28  1  0  0  0  0
 28 29  1  0  0  0  0
 28 42  2  0  0  0  0
 29 30  2  0  0  0  0
 30 31  1  0  0  0  0
 31 41  1  0  0  0  0
 31 32  2  0  0  0  0
 32 33  1  0  0  0  0
 33 34  2  0  0  0  0
 34 40  1  0  0  0  0
 34 35  1  0  0  0  0
 35 36  2  0  0  0  0
 36 37  1  0  0  0  0
 37 38  1  0  0  0  0
 37 39  2  0  0  0  0
 39 40  1  0  0  0  0
 40 41  2  0  0  0  0
M  END
$$$$

 OpenBabel10082008492D

 14 14  0  0  0  0  0  0  0  0999 V2000
   -2.3298    1.4890    0.0000 C   0  0  0  0  0  0  0  0  0  0  0  0
   -3.2433    1.0823    0.0000 C   0  0  0  0  0  0  0  0  0  0  0  0
   -4.0523    1.6701    0.0000 O   0  0  0  0  0  0  0  0  0  0  0  0
   -3.3479    0.0878    0.0000 N   0  0  0  0  0  0  0  0  0  0  0  0
   -2.5388   -0.5000    0.0000 C   0  0  0  0  0  0  0  0  0  0  0  0
   -2.5388   -1.5000    0.0000 S   0  0  0  0  0  0  0  0  0  0  0  0
   -1.5878   -1.8090    0.0000 C   0  0  0  0  0  0  0  0  0  0  0  0
   -1.2788   -2.7601    0.0000 S   0  0  0  0  0  0  0  0  0  0  0  0
   -0.3277   -2.4511    0.0000 N   0  0  0  0  0  0  0  0  0  0  0  0
   -0.9698   -3.7111    0.0000 O   0  0  0  0  0  0  0  0  0  0  0  0
   -2.2298   -3.0691    0.0000 O   0  0  0  0  0  0  0  0  0  0  0  0
   -1.0000   -1.0000    0.0000 N   0  0  0  0  0  0  0  0  0  0  0  0
   -1.5878   -0.1910    0.0000 N   0  0  0  0  0  0  0  0  0  0  0  0
   -1.2788    0.7601    0.0000 C   0  0  0  0  0  0  0  0  0  0  0  0
  1  2  1  0  0  0  0
  2  3  2  0  0  0  0
  2  4  1  0  0  0  0
  4  5  2  0  0  0  0
  5 13  1  0  0  0  0
  5  6  1  0  0  0  0
  6  7  1  0  0  0  0
  7  8  1  0  0  0  0
  7 12  2  0  0  0  0
  8  9  1  0  0  0  0
  8 10  2  0  0  0  0
  8 11  2  0  0  0  0
 12 13  1  0  0  0  0
 13 14  1  0  0  0  0
M  END
$$$$

 OpenBabel10082008492D

 33 35  0  0  0  0  0  0  0  0999 V2000
   -7.5000    1.5981    0.0000 C   0  0  0  0  0  0  0  0  0  0  0  0
   -7.0000    0.7321    0.0000 O   0  0  0  0  0  0  0  0  0  0  0  0
   -6.0000    0.7321    0.0000 C   0  0  0  0  0  0  0  0  0  0  0  0
   -5.5000    1.5981    0.0000 C   0  0  0  0  0  0  0  0  0  0  0  0
   -4.5000    1.5981    0.0000 C   0  0  0  0  0  0  0  0  0  0  0  0
   -4.0000    0.7321    0.0000 C   0  0  0  0  0  0  0  0  0  0  0  0
   -3.0000    0.7321    0.0000 Cl  0  0  0  0  0  0  0  0  0  0  0  0
   -4.5000   -0.1340    0.0000 C   0  0  0  0  0  0  0  0  0  0  0  0
   -5.5000   -0.1340    0.0000 C   0  0  0  0  0  0  0  0  0  0  0  0
   -6.0000   -1.0000    0.0000 C   0  0  0  0  0  0  0  0  0  0  0  0
   -7.0000   -1.0000    0.0000 O   0  0  0  0  0  0  0  0  0  0  0  0
   -5.5000   -1.8660    0.0000 N   0  0  0  0  0  0  0  0  0  0  0  0
   -4.5000   -1.8660    0.0000 C   0  0  0  0  0  0  0  0  0  0  0  0
   -4.0000   -1.0000    0.0000 C   0  0  0  0  0  0  0  0  0  0  0  0
   -3.0000   -1.0000    0.0000 C   0  0  0  0  0  0  0  0  0  0  0  0
   -2.5000   -0.1340    0.0000 C   0  0  0  0  0  0  0  0  0  0  0  0
   -1.5000   -0.1340    0.0000 C   0  0  0  0  0  0  0  0  0  0  0  0
   -1.0000   -1.0000    0.0000 C   0  0  0  0  0  0  0  0  0  0  0  0
    0.0000   -1.0000    0.0000 S   0  0  0  0  0  0  0  0  0  0  0  0
   -0.0000   -2.0000    0.0000 O   0  0  0  0  0  0  0  0  0  0  0  0
    1.0000   -1.0000    0.0000 O   0  0  0  0  0  0  0  0  0  0  0  0
    0.0000   -0.0000    0.0000 N   0  0  0  0  0  0  0  0  0  0  0  0
    0.8660    0.5000    0.0000 C   0  0  0  0  0  0  0  0  0  0  0  0
    1.7321    0.0000    0.0000 O   0  0  0  0  0  0  0  0  0  0  0  0
    0.8660    1.5000    0.0000 N   0  0  0  0  0  0  0  0  0  0  0  0
    1.7321    2.0000    0.0000 C   0  0  0  0  0  0  0  0  0  0  0  0
    1.7321    3.0000    0.0000 C   0  0  0  0  0  0  0  0  0  0  0  0
    2.5981    3.5000    0.0000 C   0  0  0  0  0  0  0  0  0  0  0  0
    3.4641    3.0000    0.0000 C   0  0  0  0  0  0  0  0  0  0  0  0
    3.4641    2.0000    0.0000 C   0  0  0  0  0  0  0  0  0  0  0  0
    2.5981    1.5000    0.0000 C   0  0  0  0  0  0  0  0  0  0  0  0
   -1.5000   -1.8660    0.0000 C   0  0  0  0  0  0  0  0  0  0  0  0
   -2.5000   -1.8660    0.0000 C   0  0  0  0  0  0  0  0  0  0  0  0
  1  2  1  0  0  0  0
  2  3  1  0  0  0  0
  3  9  1  0  0  0  0
  3  4  2  0  0  0  0
  4  5  1  0  0  0  0
  5  6  2  0  0  0  0
  6  7  1  0  0  0  0
  6  8  1  0  0  0  0
  8  9  2  0  0  0  0
  9 10  1  0  0  0  0
 10 11  2  0  0  0  0
 10 12  1  0  0  0  0
 12 13  1  0  0  0  0
 13 14  1  0  0  0  0
 14 15  1  0  0  0  0
 15 33  1  0  0  0  0
 15 16  2  0  0  0  0
 16 17  1  0  0  0  0
 17 18  2  0  0  0  0
 18 19  1  0  0  0  0
 18 32  1  0  0  0  0
 19 20  2  0  0  0  0
 19 21  2  0  0  0  0
 19 22  1  0  0  0  0
 22 23  1  0  0  0  0
 23 24  2  0  0  0  0
 23 25  1  0  0  0  0
 25 26  1  0  0  0  0
 26 31  1  0  0  0  0
 26 27  1  0  0  0  0
 27 28  1  0  0  0  0
 28 29  1  0  0  0  0
 29 30  1  0  0  0  0
 30 31  1  0  0  0  0
 32 33  2  0  0  0  0
M  END
$$$$

 OpenBabel10082008492D

 20 22  0  0  1  0  0  0  0  0999 V2000
    3.9610   -0.9724    0.0000 O   0  0  0  0  0  0  0  0  0  0  0  0
    3.0950   -0.4724    0.0000 C   0  0  0  0  0  0  0  0  0  0  0  0
    3.0950    0.5276    0.0000 N   0  0  0  0  0  0  0  0  0  0  0  0
    3.9610    1.0276    0.0000 H   0  0  0  0  0  0  0  0  0  0  0  0
    2.2289    1.0276    0.0000 C   0  0  0  0  0  0  0  0  0  0  0  0
    1.3629    0.5276    0.0000 N   0  0  0  0  0  0  0  0  0  0  0  0
    1.3629   -0.4724    0.0000 C   0  0  0  0  0  0  0  0  0  0  0  0
    2.2289   -0.9724    0.0000 C   0  0  0  0  0  0  0  0  0  0  0  0
    2.0210   -1.9505    0.0000 N   0  0  0  0  0  0  0  0  0  0  0  0
    1.0265   -2.0550    0.0000 C   0  0  0  0  0  0  0  0  0  0  0  0
    0.6198   -1.1415    0.0000 N   0  0  0  0  0  0  0  0  0  0  0  0
   -0.3584   -0.9336    0.0000 C   0  0  1  0  0  0  0  0  0  0  0  0
   -0.7567   -1.8508    0.0000 H   0  0  0  0  0  0  0  0  0  0  0  0
   -1.3570   -0.8812    0.0000 C   0  0  0  0  0  0  0  0  0  0  0  0
   -1.6158    0.0847    0.0000 C   0  0  0  0  0  0  0  0  0  0  0  0
   -0.7771    0.6293    0.0000 C   0  0  1  0  0  0  0  0  0  0  0  0
   -0.2325    1.4680    0.0000 H   0  0  0  0  0  0  0  0  0  0  0  0
   -1.2311    1.5203    0.0000 C   0  0  0  0  0  0  0  0  0  0  0  0
   -2.2298    1.5727    0.0000 O   0  0  0  0  0  0  0  0  0  0  0  0
    0.0000   -0.0000    0.0000 O   0  0  0  0  0  0  0  0  0  0  0  0
  1  2  2  0  0  0  0
  2  8  1  0  0  0  0
  2  3  1  0  0  0  0
  3  4  1  0  0  0  0
  3  5  1  0  0  0  0
  5  6  2  0  0  0  0
  6  7  1  0  0  0  0
  7 11  1  0  0  0  0
  7  8  2  0  0  0  0
  8  9  1  0  0  0  0
  9 10  2  0  0  0  0
 10 11  1  0  0  0  0
 11 12  1  0  0  0  0
 12 13  1  6  0  0  0
 12 20  1  0  0  0  0
 12 14  1  0  0  0  0
 14 15  1  0  0  0  0
 15 16  1  0  0  0  0
 16 17  1  6  0  0  0
 16 18  1  0  0  0  0
 16 20  1  0  0  0  0
 18 19  1  0  0  0  0
M  END
$$$$

 OpenBabel10082008492D

 22 22  0  0  0  0  0  0  0  0999 V2000
    5.1962    2.0000    0.0000 C   0  0  0  0  0  0  0  0  0  0  0  0
    4.3301    1.5000    0.0000 C   0  0  0  0  0  0  0  0  0  0  0  0
    3.4641    2.0000    0.0000 N   0  0  0  0  0  0  0  0  0  0  0  0
    3.4641    3.0000    0.0000 C   0  0  0  0  0  0  0  0  0  0  0  0
    2.5981    3.5000    0.0000 C   0  0  0  0  0  0  0  0  0  0  0  0
    2.5981    1.5000    0.0000 C   0  0  0  0  0  0  0  0  0  0  0  0
    1.7321    2.0000    0.0000 O   0  0  0  0  0  0  0  0  0  0  0  0
    2.5981    0.5000    0.0000 C   0  0  0  0  0  0  0  0  0  0  0  0
    3.4641   -0.0000    0.0000 C   0  0  0  0  0  0  0  0  0  0  0  0
    4.3301   -0.5000    0.0000 N   0  0  0  0  0  0  0  0  0  0  0  0
    1.7321   -0.0000    0.0000 C   0  0  0  0  0  0  0  0  0  0  0  0
    1.7321   -1.0000    0.0000 C   0  0  0  0  0  0  0  0  0  0  0  0
    2.5981   -1.5000    0.0000 C   0  0  0  0  0  0  0  0  0  0  0  0
    2.5981   -2.5000    0.0000 C   0  0  0  0  0  0  0  0  0  0  0  0
    3.4641   -3.0000    0.0000 O   0  0  0  0  0  0  0  0  0  0  0  0
    1.7321   -3.0000    0.0000 C   0  0  0  0  0  0  0  0  0  0  0  0
    1.7321   -4.0000    0.0000 O   0  0  0  0  0  0  0  0  0  0  0  0
    0.8660   -2.5000    0.0000 C   0  0  0  0  0  0  0  0  0  0  0  0
   -0.0000   -3.0000    0.0000 N   0  3  0  0  0  0  0  0  0  0  0  0
   -0.8660   -2.5000    0.0000 O   0  0  0  0  0  0  0  0  0  0  0  0
   -0.0000   -4.0000    0.0000 O   0  5  0  0  0  0  0  0  0  0  0  0
    0.8660   -1.5000    0.0000 C   0  0  0  0  0  0  0  0  0  0  0  0
  1  2  1  0  0  0  0
  2  3  1  0  0  0  0
  3  4  1  0  0  0  0
  3  6  1  0  0  0  0
  4  5  1  0  0  0  0
  6  7  2  0  0  0  0
  6  8  1  0  0  0  0
  8  9  1  0  0  0  0
  8 11  2  0  0  0  0
  9 10  3  0  0  0  0
 11 12  1  0  0  0  0
 12 22  1  0  0  0  0
 12 13  2  0  0  0  0
 13 14  1  0  0  0  0
 14 15  1  0  0  0  0
 14 16  2  0  0  0  0
 16 17  1  0  0  0  0
 16 18  1  0  0  0  0
 18 19  1  0  0  0  0
 18 22  2  0  0  0  0
 19 20  2  0  0  0  0
 19 21  1  0  0  0  0
M  CHG  2  19   1  21  -1
M  END
$$$$

 OpenBabel10082008492D

 26 28  0  0  1  0  0  0  0  0999 V2000
    0.7029    2.7965    0.0000 C   0  0  0  0  0  0  0  0  0  0  0  0
    1.6810    2.5886    0.0000 C   0  0  0  0  0  0  0  0  0  0  0  0
    2.4242    3.2577    0.0000 C   0  0  0  0  0  0  0  0  0  0  0  0
    3.2902    2.7577    0.0000 C   0  0  0  0  0  0  0  0  0  0  0  0
    3.0823    1.7796    0.0000 S   0  0  0  0  0  0  0  0  0  0  0  0
    2.0878    1.6750    0.0000 C   0  0  0  0  0  0  0  0  0  0  0  0
    1.5878    0.8090    0.0000 C   0  0  0  0  0  0  0  0  0  0  0  0
    2.0878   -0.0570    0.0000 C   0  0  0  0  0  0  0  0  0  0  0  0
    3.0878   -0.0570    0.0000 C   0  0  0  0  0  0  0  0  0  0  0  0
    3.5878    0.8090    0.0000 C   0  0  0  0  0  0  0  0  0  0  0  0
    4.5878    0.8090    0.0000 N   0  0  0  0  0  0  0  0  0  0  0  0
    5.0878   -0.0570    0.0000 C   0  0  0  0  0  0  0  0  0  0  0  0
    6.0878   -0.0570    0.0000 C   0  0  0  0  0  0  0  0  0  0  0  0
    6.5878    0.8090    0.0000 C   0  0  0  0  0  0  0  0  0  0  0  0
    6.0878    1.6750    0.0000 C   0  0  1  0  0  0  0  0  0  0  0  0
    6.0878    2.6750    0.0000 H   0  0  0  0  0  0  0  0  0  0  0  0
    6.9538    2.1750    0.0000 C   0  0  0  0  0  0  0  0  0  0  0  0
    6.9538    3.1750    0.0000 O   0  0  0  0  0  0  0  0  0  0  0  0
    7.8198    1.6750    0.0000 O   0  0  0  0  0  0  0  0  0  0  0  0
    5.0878    1.6750    0.0000 C   0  0  0  0  0  0  0  0  0  0  0  0
    0.5878    0.8090    0.0000 C   0  0  0  0  0  0  0  0  0  0  0  0
    0.0000    1.6180    0.0000 S   0  0  0  0  0  0  0  0  0  0  0  0
   -0.9511    1.3090    0.0000 C   0  0  0  0  0  0  0  0  0  0  0  0
   -0.9511    0.3090    0.0000 C   0  0  0  0  0  0  0  0  0  0  0  0
    0.0000   -0.0000    0.0000 C   0  0  0  0  0  0  0  0  0  0  0  0
    0.3090   -0.9511    0.0000 C   0  0  0  0  0  0  0  0  0  0  0  0
  1  2  1  0  0  0  0
  2  6  2  0  0  0  0
  2  3  1  0  0  0  0
  3  4  2  0  0  0  0
  4  5  1  0  0  0  0
  5  6  1  0  0  0  0
  6  7  1  0  0  0  0
  7  8  2  0  0  0  0
  7 21  1  0  0  0  0
  8  9  1  0  0  0  0
  9 10  1  0  0  0  0
 10 11  1  0  0  0  0
 11 20  1  0  0  0  0
 11 12  1  0  0  0  0
 12 13  1  0  0  0  0
 13 14  1  0  0  0  0
 14 15  1  0  0  0  0
 15 16  1  1  0  0  0
 15 17  1  0  0  0  0
 15 20  1  0  0  0  0
 17 18  2  0  0  0  0
 17 19  1  0  0  0  0
 21 25  2  0  0  0  0
 21 22  1  0  0  0  0
 22 23  1  0  0  0  0
 23 24  2  0  0  0  0
 24 25  1  0  0  0  0
 25 26  1  0  0  0  0
M  END
$$$$

 OpenBabel10082008492D

 27 30  0  0  0  0  0  0  0  0999 V2000
    1.7321   -1.0000    0.0000 N   0  0  0  0  0  0  0  0  0  0  0  0
    0.8660   -1.5000    0.0000 C   0  0  0  0  0  0  0  0  0  0  0  0
    0.0000   -2.0000    0.0000 C   0  0  0  0  0  0  0  0  0  0  0  0
    0.0000   -3.0000    0.0000 C   0  0  0  0  0  0  0  0  0  0  0  0
   -0.8660   -3.5000    0.0000 C   0  0  0  0  0  0  0  0  0  0  0  0
   -1.7321   -3.0000    0.0000 C   0  0  0  0  0  0  0  0  0  0  0  0
   -1.7321   -2.0000    0.0000 C   0  0  0  0  0  0  0  0  0  0  0  0
   -0.8660   -1.5000    0.0000 C   0  0  0  0  0  0  0  0  0  0  0  0
   -0.8660   -0.5000    0.0000 C   0  0  0  0  0  0  0  0  0  0  0  0
   -1.7321   -0.0000    0.0000 C   0  0  0  0  0  0  0  0  0  0  0  0
   -1.7321    1.0000    0.0000 C   0  0  0  0  0  0  0  0  0  0  0  0
   -2.5981    1.5000    0.0000 C   0  0  0  0  0  0  0  0  0  0  0  0
   -3.4641    1.0000    0.0000 C   0  0  0  0  0  0  0  0  0  0  0  0
   -4.3301    1.5000    0.0000 C   0  0  0  0  0  0  0  0  0  0  0  0
   -4.3301    2.5000    0.0000 C   0  0  0  0  0  0  0  0  0  0  0  0
   -3.4641    3.0000    0.0000 C   0  0  0  0  0  0  0  0  0  0  0  0
   -2.5981    2.5000    0.0000 N   0  0  0  0  0  0  0  0  0  0  0  0
   -0.8660    1.5000    0.0000 C   0  0  0  0  0  0  0  0  0  0  0  0
   -0.0000    1.0000    0.0000 N   0  0  0  0  0  0  0  0  0  0  0  0
    0.8660    1.5000    0.0000 C   0  0  0  0  0  0  0  0  0  0  0  0
    0.8660    2.5000    0.0000 C   0  0  0  0  0  0  0  0  0  0  0  0
    1.7321    3.0000    0.0000 C   0  0  0  0  0  0  0  0  0  0  0  0
    2.5981    2.5000    0.0000 C   0  0  0  0  0  0  0  0  0  0  0  0
    2.5981    1.5000    0.0000 C   0  0  0  0  0  0  0  0  0  0  0  0
    1.7321    1.0000    0.0000 C   0  0  0  0  0  0  0  0  0  0  0  0
    0.0000   -0.0000    0.0000 C   0  0  0  0  0  0  0  0  0  0  0  0
    0.8660   -0.5000    0.0000 O   0  0  0  0  0  0  0  0  0  0  0  0
  1  2  3  0  0  0  0
  2  3  1  0  0  0  0
  3  8  1  0  0  0  0
  3  4  2  0  0  0  0
  4  5  1  0  0  0  0
  5  6  2  0  0  0  0
  6  7  1  0  0  0  0
  7  8  2  0  0  0  0
  8  9  1  0  0  0  0
  9 26  1  0  0  0  0
  9 10  2  0  0  0  0
 10 11  1  0  0  0  0
 11 12  1  0  0  0  0
 11 18  2  0  0  0  0
 12 17  1  0  0  0  0
 12 13  2  0  0  0  0
 13 14  1  0  0  0  0
 14 15  2  0  0  0  0
 15 16  1  0  0  0  0
 16 17  2  0  0  0  0
 18 19  1  0  0  0  0
 19 20  1  0  0  0  0
 19 26  1  0  0  0  0
 20 25  1  0  0  0  0
 20 21  2  0  0  0  0
 21 22  1  0  0  0  0
 22 23  2  0  0  0  0
 23 24  1  0  0  0  0
 24 25  2  0  0  0  0
 26 27  2  0  0  0  0
M  END
$$$$

 OpenBabel10082008492D

 35 38  0  0  0  0  0  0  0  0999 V2000
    6.9480   -1.2205    0.0000 C   0  0  0  0  0  0  0  0  0  0  0  0
    5.9535   -1.1160    0.0000 C   0  0  0  0  0  0  0  0  0  0  0  0
    5.0400   -1.5227    0.0000 C   0  0  0  0  0  0  0  0  0  0  0  0
    5.8490   -2.1105    0.0000 C   0  0  0  0  0  0  0  0  0  0  0  0
    5.5468   -0.2024    0.0000 C   0  0  0  0  0  0  0  0  0  0  0  0
    4.5686    0.0055    0.0000 N   0  0  0  0  0  0  0  0  0  0  0  0
    4.4641    1.0000    0.0000 C   0  0  0  0  0  0  0  0  0  0  0  0
    3.5981    1.5000    0.0000 C   0  0  0  0  0  0  0  0  0  0  0  0
    3.5981    2.5000    0.0000 C   0  0  0  0  0  0  0  0  0  0  0  0
    2.7321    3.0000    0.0000 C   0  0  0  0  0  0  0  0  0  0  0  0
    1.8660    2.5000    0.0000 C   0  0  0  0  0  0  0  0  0  0  0  0
    1.8660    1.5000    0.0000 C   0  0  0  0  0  0  0  0  0  0  0  0
    1.0000    1.0000    0.0000 N   0  0  0  0  0  0  0  0  0  0  0  0
    1.0000    0.0000    0.0000 S   0  0  0  0  0  0  0  0  0  0  0  0
    2.0000    0.0000    0.0000 O   0  0  0  0  0  0  0  0  0  0  0  0
    1.0000   -1.0000    0.0000 O   0  0  0  0  0  0  0  0  0  0  0  0
   -0.0000   -0.0000    0.0000 C   0  0  0  0  0  0  0  0  0  0  0  0
   -0.5000    0.8660    0.0000 C   0  0  0  0  0  0  0  0  0  0  0  0
    0.0000    1.7321    0.0000 F   0  0  0  0  0  0  0  0  0  0  0  0
   -1.5000    0.8660    0.0000 C   0  0  0  0  0  0  0  0  0  0  0  0
   -2.0000   -0.0000    0.0000 C   0  0  0  0  0  0  0  0  0  0  0  0
   -1.5000   -0.8660    0.0000 C   0  0  0  0  0  0  0  0  0  0  0  0
   -0.5000   -0.8660    0.0000 C   0  0  0  0  0  0  0  0  0  0  0  0
   -0.0000   -1.7321    0.0000 F   0  0  0  0  0  0  0  0  0  0  0  0
    2.7321    1.0000    0.0000 C   0  0  0  0  0  0  0  0  0  0  0  0
    2.7321    0.0000    0.0000 F   0  0  0  0  0  0  0  0  0  0  0  0
    5.3776    1.4067    0.0000 C   0  0  0  0  0  0  0  0  0  0  0  0
    5.5856    2.3849    0.0000 C   0  0  0  0  0  0  0  0  0  0  0  0
    4.8424    3.0540    0.0000 C   0  0  0  0  0  0  0  0  0  0  0  0
    5.0503    4.0322    0.0000 C   0  0  0  0  0  0  0  0  0  0  0  0
    6.0014    4.3412    0.0000 N   0  0  0  0  0  0  0  0  0  0  0  0
    6.7445    3.6720    0.0000 C   0  0  0  0  0  0  0  0  0  0  0  0
    7.6956    3.9811    0.0000 N   0  0  0  0  0  0  0  0  0  0  0  0
    6.5366    2.6939    0.0000 N   0  0  0  0  0  0  0  0  0  0  0  0
    6.0468    0.6636    0.0000 S   0  0  0  0  0  0  0  0  0  0  0  0
  1  2  1  0  0  0  0
  2  3  1  0  0  0  0
  2  4  1  0  0  0  0
  2  5  1  0  0  0  0
  5 35  1  0  0  0  0
  5  6  2  0  0  0  0
  6  7  1  0  0  0  0
  7  8  1  0  0  0  0
  7 27  2  0  0  0  0
  8 25  1  0  0  0  0
  8  9  2  0  0  0  0
  9 10  1  0  0  0  0
 10 11  2  0  0  0  0
 11 12  1  0  0  0  0
 12 13  1  0  0  0  0
 12 25  2  0  0  0  0
 13 14  1  0  0  0  0
 14 15  2  0  0  0  0
 14 16  2  0  0  0  0
 14 17  1  0  0  0  0
 17 23  1  0  0  0  0
 17 18  2  0  0  0  0
 18 19  1  0  0  0  0
 18 20  1  0  0  0  0
 20 21  2  0  0  0  0
 21 22  1  0  0  0  0
 22 23  2  0  0  0  0
 23 24  1  0  0  0  0
 25 26  1  0  0  0  0
 27 28  1  0  0  0  0
 27 35  1  0  0  0  0
 28 34  1  0  0  0  0
 28 29  2  0  0  0  0
 29 30  1  0  0  0  0
 30 31  2  0  0  0  0
 31 32  1  0  0  0  0
 32 33  1  0  0  0  0
 32 34  2  0  0  0  0
M  END
$$$$

 OpenBabel10082008492D

 27 29  0  0  0  0  0  0  0  0999 V2000
    4.1283    3.5623    0.0000 C   0  0  0  0  0  0  0  0  0  0  0  0
    4.6283    2.6962    0.0000 C   0  0  0  0  0  0  0  0  0  0  0  0
    5.6229    2.5917    0.0000 N   0  0  0  0  0  0  0  0  0  0  0  0
    6.2920    3.3349    0.0000 H   0  0  0  0  0  0  0  0  0  0  0  0
    5.8308    1.6136    0.0000 C   0  0  0  0  0  0  0  0  0  0  0  0
    6.6968    1.1136    0.0000 C   0  0  0  0  0  0  0  0  0  0  0  0
    6.6968    0.1136    0.0000 C   0  0  0  0  0  0  0  0  0  0  0  0
    5.8308   -0.3864    0.0000 C   0  0  0  0  0  0  0  0  0  0  0  0
    4.9648    0.1136    0.0000 C   0  0  0  0  0  0  0  0  0  0  0  0
    4.9648    1.1136    0.0000 C   0  0  0  0  0  0  0  0  0  0  0  0
    4.2216    1.7827    0.0000 C   0  0  0  0  0  0  0  0  0  0  0  0
    3.2435    1.5748    0.0000 C   0  0  0  0  0  0  0  0  0  0  0  0
    2.5743    2.3179    0.0000 C   0  0  0  0  0  0  0  0  0  0  0  0
    1.5962    2.1100    0.0000 N   0  0  0  0  0  0  0  0  0  0  0  0
    1.2872    1.1590    0.0000 C   0  0  0  0  0  0  0  0  0  0  0  0
    0.3090    0.9511    0.0000 C   0  0  0  0  0  0  0  0  0  0  0  0
   -0.3601    1.6942    0.0000 C   0  0  0  0  0  0  0  0  0  0  0  0
   -1.3383    1.4863    0.0000 C   0  0  0  0  0  0  0  0  0  0  0  0
   -1.6473    0.5352    0.0000 C   0  0  0  0  0  0  0  0  0  0  0  0
   -2.6254    0.3273    0.0000 C   0  0  0  0  0  0  0  0  0  0  0  0
   -2.9344   -0.6237    0.0000 C   0  0  0  0  0  0  0  0  0  0  0  0
   -3.9126   -0.8316    0.0000 C   0  0  0  0  0  0  0  0  0  0  0  0
   -4.2216   -1.7827    0.0000 O   0  0  0  0  0  0  0  0  0  0  0  0
   -4.5817   -0.0885    0.0000 N   0  0  0  0  0  0  0  0  0  0  0  0
   -5.5599   -0.2964    0.0000 O   0  0  0  0  0  0  0  0  0  0  0  0
   -0.9781   -0.2079    0.0000 C   0  0  0  0  0  0  0  0  0  0  0  0
    0.0000   -0.0000    0.0000 C   0  0  0  0  0  0  0  0  0  0  0  0
  1  2  1  0  0  0  0
  2 11  2  0  0  0  0
  2  3  1  0  0  0  0
  3  4  1  0  0  0  0
  3  5  1  0  0  0  0
  5 10  1  0  0  0  0
  5  6  2  0  0  0  0
  6  7  1  0  0  0  0
  7  8  2  0  0  0  0
  8  9  1  0  0  0  0
  9 10  2  0  0  0  0
 10 11  1  0  0  0  0
 11 12  1  0  0  0  0
 12 13  1  0  0  0  0
 13 14  1  0  0  0  0
 14 15  1  0  0  0  0
 15 16  1  0  0  0  0
 16 27  1  0  0  0  0
 16 17  2  0  0  0  0
 17 18  1  0  0  0  0
 18 19  2  0  0  0  0
 19 20  1  0  0  0  0
 19 26  1  0  0  0  0
 20 21  2  0  0  0  0
 21 22  1  0  0  0  0
 22 23  2  0  0  0  0
 22 24  1  0  0  0  0
 24 25  1  0  0  0  0
 26 27  2  0  0  0  0
M  END
$$$$

 OpenBabel10082008492D

 31 32  0  0  1  0  0  0  0  0999 V2000
    4.7321   -1.7321    0.0000 C   0  0  0  0  0  0  0  0  0  0  0  0
    5.2321   -0.8660    0.0000 C   0  0  0  0  0  0  0  0  0  0  0  0
    6.2321   -0.8660    0.0000 C   0  0  0  0  0  0  0  0  0  0  0  0
    4.7321    0.0000    0.0000 C   0  0  0  0  0  0  0  0  0  0  0  0
    5.2321    0.8660    0.0000 O   0  0  0  0  0  0  0  0  0  0  0  0
    3.7321    0.0000    0.0000 O   0  0  0  0  0  0  0  0  0  0  0  0
    3.2321   -0.8660    0.0000 C   0  0  0  0  0  0  0  0  0  0  0  0
    3.7321   -1.7321    0.0000 C   0  0  0  0  0  0  0  0  0  0  0  0
    3.2321   -2.5981    0.0000 C   0  0  0  0  0  0  0  0  0  0  0  0
    2.2321   -2.5981    0.0000 C   0  0  0  0  0  0  0  0  0  0  0  0
    1.7321   -3.4641    0.0000 C   0  0  0  0  0  0  0  0  0  0  0  0
    0.7321   -3.4641    0.0000 O   0  0  0  0  0  0  0  0  0  0  0  0
    1.7321   -1.7321    0.0000 C   0  0  0  0  0  0  0  0  0  0  0  0
    2.2321   -0.8660    0.0000 C   0  0  0  0  0  0  0  0  0  0  0  0
    1.7321    0.0000    0.0000 C   0  0  2  0  0  0  0  0  0  0  0  0
    2.5981    0.5000    0.0000 H   0  0  0  0  0  0  0  0  0  0  0  0
    1.2321    0.8660    0.0000 C   0  0  0  0  0  0  0  0  0  0  0  0
    1.7321    1.7321    0.0000 C   0  0  0  0  0  0  0  0  0  0  0  0
    2.7321    1.7321    0.0000 N   0  0  0  0  0  0  0  0  0  0  0  0
    3.2321    0.8660    0.0000 C   0  0  0  0  0  0  0  0  0  0  0  0
    2.7321    0.0000    0.0000 C   0  0  0  0  0  0  0  0  0  0  0  0
    4.2321    0.8660    0.0000 C   0  0  0  0  0  0  0  0  0  0  0  0
    3.2321    2.5981    0.0000 C   0  0  0  0  0  0  0  0  0  0  0  0
    4.2321    2.5981    0.0000 C   0  0  0  0  0  0  0  0  0  0  0  0
    2.7321    3.4641    0.0000 C   0  0  0  0  0  0  0  0  0  0  0  0
    0.8660   -0.5000    0.0000 C   0  0  0  0  0  0  0  0  0  0  0  0
    0.8660   -1.5000    0.0000 C   0  0  0  0  0  0  0  0  0  0  0  0
    0.0000   -2.0000    0.0000 C   0  0  0  0  0  0  0  0  0  0  0  0
   -0.8660   -1.5000    0.0000 C   0  0  0  0  0  0  0  0  0  0  0  0
   -0.8660   -0.5000    0.0000 C   0  0  0  0  0  0  0  0  0  0  0  0
    0.0000    0.0000    0.0000 C   0  0  0  0  0  0  0  0  0  0  0  0
  1  2  1  0  0  0  0
  2  3  1  0  0  0  0
  2  4  1  0  0  0  0
  4  5  2  0  0  0  0
  4  6  1  0  0  0  0
  6  7  1  0  0  0  0
  7 14  1  0  0  0  0
  7  8  2  0  0  0  0
  8  9  1  0  0  0  0
  9 10  2  0  0  0  0
 10 11  1  0  0  0  0
 10 13  1  0  0  0  0
 11 12  1  0  0  0  0
 13 14  2  0  0  0  0
 14 15  1  0  0  0  0
 15 16  1  6  0  0  0
 15 17  1  0  0  0  0
 15 26  1  0  0  0  0
 17 18  1  0  0  0  0
 18 19  1  0  0  0  0
 19 20  1  0  0  0  0
 19 23  1  0  0  0  0
 20 21  1  0  0  0  0
 20 22  1  0  0  0  0
 23 24  1  0  0  0  0
 23 25  1  0  0  0  0
 26 31  1  0  0  0  0
 26 27  2  0  0  0  0
 27 28  1  0  0  0  0
 28 29  2  0  0  0  0
 29 30  1  0  0  0  0
 30 31  2  0  0  0  0
M  END
$$$$

 OpenBabel10082008492D

 31 34  0  0  0  0  0  0  0  0999 V2000
    1.2361    3.8042    0.0000 C   0  0  0  0  0  0  0  0  0  0  0  0
    0.9271    2.8532    0.0000 O   0  0  0  0  0  0  0  0  0  0  0  0
   -0.0511    2.6453    0.0000 C   0  0  0  0  0  0  0  0  0  0  0  0
   -0.7202    3.3884    0.0000 O   0  0  0  0  0  0  0  0  0  0  0  0
   -0.3601    1.6942    0.0000 N   0  0  0  0  0  0  0  0  0  0  0  0
   -1.3383    1.4863    0.0000 C   0  0  0  0  0  0  0  0  0  0  0  0
    0.3090    0.9511    0.0000 C   0  0  0  0  0  0  0  0  0  0  0  0
    1.2872    1.1590    0.0000 C   0  0  0  0  0  0  0  0  0  0  0  0
    1.5962    2.1100    0.0000 N   0  0  0  0  0  0  0  0  0  0  0  0
    1.9563    0.4158    0.0000 N   0  0  0  0  0  0  0  0  0  0  0  0
    1.6473   -0.5352    0.0000 C   0  0  0  0  0  0  0  0  0  0  0  0
    2.3164   -1.2784    0.0000 C   0  0  0  0  0  0  0  0  0  0  0  0
    3.3109   -1.1738    0.0000 N   0  0  0  0  0  0  0  0  0  0  0  0
    3.7177   -2.0874    0.0000 N   0  0  0  0  0  0  0  0  0  0  0  0
    4.6958   -2.2953    0.0000 C   0  0  0  0  0  0  0  0  0  0  0  0
    5.3649   -1.5522    0.0000 C   0  0  0  0  0  0  0  0  0  0  0  0
    6.3431   -1.7601    0.0000 C   0  0  0  0  0  0  0  0  0  0  0  0
    7.0122   -1.0169    0.0000 C   0  0  0  0  0  0  0  0  0  0  0  0
    6.7032   -0.0659    0.0000 C   0  0  0  0  0  0  0  0  0  0  0  0
    5.7251    0.1420    0.0000 C   0  0  0  0  0  0  0  0  0  0  0  0
    5.0559   -0.6011    0.0000 C   0  0  0  0  0  0  0  0  0  0  0  0
    4.0778   -0.3932    0.0000 F   0  0  0  0  0  0  0  0  0  0  0  0
    2.9745   -2.7565    0.0000 C   0  0  0  0  0  0  0  0  0  0  0  0
    2.9745   -3.7565    0.0000 N   0  0  0  0  0  0  0  0  0  0  0  0
    2.1085   -4.2565    0.0000 C   0  0  0  0  0  0  0  0  0  0  0  0
    1.2425   -3.7565    0.0000 C   0  0  0  0  0  0  0  0  0  0  0  0
    1.2425   -2.7565    0.0000 C   0  0  0  0  0  0  0  0  0  0  0  0
    2.1085   -2.2565    0.0000 C   0  0  0  0  0  0  0  0  0  0  0  0
    0.6691   -0.7431    0.0000 N   0  0  0  0  0  0  0  0  0  0  0  0
    0.0000   -0.0000    0.0000 C   0  0  0  0  0  0  0  0  0  0  0  0
   -0.9781   -0.2079    0.0000 N   0  0  0  0  0  0  0  0  0  0  0  0
  1  2  1  0  0  0  0
  2  3  1  0  0  0  0
  3  4  2  0  0  0  0
  3  5  1  0  0  0  0
  5  6  1  0  0  0  0
  5  7  1  0  0  0  0
  7 30  1  0  0  0  0
  7  8  2  0  0  0  0
  8  9  1  0  0  0  0
  8 10  1  0  0  0  0
 10 11  2  0  0  0  0
 11 12  1  0  0  0  0
 11 29  1  0  0  0  0
 12 28  1  0  0  0  0
 12 13  2  0  0  0  0
 13 14  1  0  0  0  0
 14 15  1  0  0  0  0
 14 23  1  0  0  0  0
 15 16  1  0  0  0  0
 16 21  1  0  0  0  0
 16 17  2  0  0  0  0
 17 18  1  0  0  0  0
 18 19  2  0  0  0  0
 19 20  1  0  0  0  0
 20 21  2  0  0  0  0
 21 22  1  0  0  0  0
 23 28  1  0  0  0  0
 23 24  2  0  0  0  0
 24 25  1  0  0  0  0
 25 26  2  0  0  0  0
 26 27  1  0  0  0  0
 27 28  2  0  0  0  0
 29 30  2  0  0  0  0
 30 31  1  0  0  0  0
M  END
$$$$

 OpenBabel10082008492D

 23 25  0  0  0  0  0  0  0  0999 V2000
    1.7321    2.0000    0.0000 C   0  0  0  0  0  0  0  0  0  0  0  0
    0.8660    1.5000    0.0000 C   0  0  0  0  0  0  0  0  0  0  0  0
    0.8660    0.5000    0.0000 N   0  0  0  0  0  0  0  0  0  0  0  0
    1.7321    0.0000    0.0000 C   0  0  0  0  0  0  0  0  0  0  0  0
    1.7321   -1.0000    0.0000 C   0  0  0  0  0  0  0  0  0  0  0  0
    2.5981   -1.5000    0.0000 C   0  0  0  0  0  0  0  0  0  0  0  0
    2.5981   -2.5000    0.0000 O   0  0  0  0  0  0  0  0  0  0  0  0
    3.4641   -1.0000    0.0000 O   0  0  0  0  0  0  0  0  0  0  0  0
    0.8660   -1.5000    0.0000 C   0  0  0  0  0  0  0  0  0  0  0  0
    0.8660   -2.5000    0.0000 O   0  0  0  0  0  0  0  0  0  0  0  0
    0.0000   -1.0000    0.0000 C   0  0  0  0  0  0  0  0  0  0  0  0
   -0.8660   -1.5000    0.0000 C   0  0  0  0  0  0  0  0  0  0  0  0
   -1.7321   -1.0000    0.0000 C   0  0  0  0  0  0  0  0  0  0  0  0
   -2.5981   -1.5000    0.0000 F   0  0  0  0  0  0  0  0  0  0  0  0
   -1.7321   -0.0000    0.0000 C   0  0  0  0  0  0  0  0  0  0  0  0
   -2.5981    0.5000    0.0000 N   0  0  0  0  0  0  0  0  0  0  0  0
   -3.4641   -0.0000    0.0000 C   0  0  0  0  0  0  0  0  0  0  0  0
   -4.3301    0.5000    0.0000 C   0  0  0  0  0  0  0  0  0  0  0  0
   -4.3301    1.5000    0.0000 N   0  0  0  0  0  0  0  0  0  0  0  0
   -3.4641    2.0000    0.0000 C   0  0  0  0  0  0  0  0  0  0  0  0
   -2.5981    1.5000    0.0000 C   0  0  0  0  0  0  0  0  0  0  0  0
   -0.8660    0.5000    0.0000 C   0  0  0  0  0  0  0  0  0  0  0  0
    0.0000   -0.0000    0.0000 C   0  0  0  0  0  0  0  0  0  0  0  0
  1  2  1  0  0  0  0
  2  3  1  0  0  0  0
  3 23  1  0  0  0  0
  3  4  1  0  0  0  0
  4  5  2  0  0  0  0
  5  6  1  0  0  0  0
  5  9  1  0  0  0  0
  6  7  2  0  0  0  0
  6  8  1  0  0  0  0
  9 10  2  0  0  0  0
  9 11  1  0  0  0  0
 11 23  1  0  0  0  0
 11 12  2  0  0  0  0
 12 13  1  0  0  0  0
 13 14  1  0  0  0  0
 13 15  2  0  0  0  0
 15 16  1  0  0  0  0
 15 22  1  0  0  0  0
 16 21  1  0  0  0  0
 16 17  1  0  0  0  0
 17 18  1  0  0  0  0
 18 19  1  0  0  0  0
 19 20  1  0  0  0  0
 20 21  1  0  0  0  0
 22 23  2  0  0  0  0
M  END
$$$$

 OpenBabel10082008492D

 34 38  0  0  0  0  0  0  0  0999 V2000
    2.2653    1.3669    0.0000 C   0  0  0  0  0  0  0  0  0  0  0  0
    1.2872    1.1590    0.0000 O   0  0  0  0  0  0  0  0  0  0  0  0
    0.9781    0.2079    0.0000 C   0  0  0  0  0  0  0  0  0  0  0  0
    1.6473   -0.5352    0.0000 C   0  0  0  0  0  0  0  0  0  0  0  0
    1.3383   -1.4863    0.0000 C   0  0  0  0  0  0  0  0  0  0  0  0
    0.3601   -1.6942    0.0000 C   0  0  0  0  0  0  0  0  0  0  0  0
    0.0511   -2.6453    0.0000 N   0  0  0  0  0  0  0  0  0  0  0  0
    0.6389   -3.4543    0.0000 N   0  0  0  0  0  0  0  0  0  0  0  0
    0.0511   -4.2633    0.0000 C   0  0  0  0  0  0  0  0  0  0  0  0
    0.3601   -5.2143    0.0000 C   0  0  0  0  0  0  0  0  0  0  0  0
   -0.3090   -5.9575    0.0000 N   0  0  0  0  0  0  0  0  0  0  0  0
    1.3383   -5.4223    0.0000 O   0  0  0  0  0  0  0  0  0  0  0  0
   -0.9000   -3.9543    0.0000 C   0  0  0  0  0  0  0  0  0  0  0  0
   -0.9000   -2.9543    0.0000 C   0  0  0  0  0  0  0  0  0  0  0  0
   -1.7660   -2.4543    0.0000 C   0  0  0  0  0  0  0  0  0  0  0  0
   -1.7660   -1.4543    0.0000 O   0  0  0  0  0  0  0  0  0  0  0  0
   -2.6320   -2.9543    0.0000 N   0  0  0  0  0  0  0  0  0  0  0  0
   -3.4980   -2.4543    0.0000 C   0  0  0  0  0  0  0  0  0  0  0  0
   -4.3641   -2.9543    0.0000 C   0  0  0  0  0  0  0  0  0  0  0  0
   -5.2301   -2.4543    0.0000 C   0  0  0  0  0  0  0  0  0  0  0  0
   -5.2301   -1.4543    0.0000 C   0  0  0  0  0  0  0  0  0  0  0  0
   -6.0961   -0.9543    0.0000 N   0  0  0  0  0  0  0  0  0  0  0  0
   -6.9621   -1.4543    0.0000 C   0  0  0  0  0  0  0  0  0  0  0  0
   -7.8282   -0.9543    0.0000 C   0  0  0  0  0  0  0  0  0  0  0  0
   -7.8282    0.0457    0.0000 C   0  0  0  0  0  0  0  0  0  0  0  0
   -6.9621    0.5457    0.0000 C   0  0  0  0  0  0  0  0  0  0  0  0
   -6.0961    0.0457    0.0000 C   0  0  0  0  0  0  0  0  0  0  0  0
   -5.2301    0.5457    0.0000 O   0  0  0  0  0  0  0  0  0  0  0  0
   -4.3641   -0.9543    0.0000 C   0  0  0  0  0  0  0  0  0  0  0  0
   -3.4980   -1.4543    0.0000 C   0  0  0  0  0  0  0  0  0  0  0  0
   -2.6320   -3.9543    0.0000 C   0  0  0  0  0  0  0  0  0  0  0  0
   -1.7660   -4.4543    0.0000 C   0  0  0  0  0  0  0  0  0  0  0  0
   -0.3090   -0.9511    0.0000 C   0  0  0  0  0  0  0  0  0  0  0  0
    0.0000   -0.0000    0.0000 C   0  0  0  0  0  0  0  0  0  0  0  0
  1  2  1  0  0  0  0
  2  3  1  0  0  0  0
  3 34  1  0  0  0  0
  3  4  2  0  0  0  0
  4  5  1  0  0  0  0
  5  6  2  0  0  0  0
  6  7  1  0  0  0  0
  6 33  1  0  0  0  0
  7 14  1  0  0  0  0
  7  8  1  0  0  0  0
  8  9  2  0  0  0  0
  9 10  1  0  0  0  0
  9 13  1  0  0  0  0
 10 11  1  0  0  0  0
 10 12  2  0  0  0  0
 13 32  1  0  0  0  0
 13 14  2  0  0  0  0
 14 15  1  0  0  0  0
 15 16  2  0  0  0  0
 15 17  1  0  0  0  0
 17 18  1  0  0  0  0
 17 31  1  0  0  0  0
 18 30  1  0  0  0  0
 18 19  2  0  0  0  0
 19 20  1  0  0  0  0
 20 21  2  0  0  0  0
 21 22  1  0  0  0  0
 21 29  1  0  0  0  0
 22 27  1  0  0  0  0
 22 23  1  0  0  0  0
 23 24  1  0  0  0  0
 24 25  1  0  0  0  0
 25 26  1  0  0  0  0
 26 27  1  0  0  0  0
 27 28  2  0  0  0  0
 29 30  2  0  0  0  0
 31 32  1  0  0  0  0
 33 34  2  0  0  0  0
M  END
$$$$

 OpenBabel10082008492D

 55 59  0  0  1  0  0  0  0  0999 V2000
    2.6357    7.1499    0.0000 C   0  0  0  0  0  0  0  0  0  0  0  0
    3.5855    6.8954    0.0000 C   0  0  0  0  0  0  0  0  0  0  0  0
    4.5353    7.1499    0.0000 C   0  0  0  0  0  0  0  0  0  0  0  0
    3.8400    7.8452    0.0000 C   0  0  0  0  0  0  0  0  0  0  0  0
    3.8400    5.9456    0.0000 N   0  0  0  0  0  0  0  0  0  0  0  0
    3.1447    5.2503    0.0000 C   0  0  0  0  0  0  0  0  0  0  0  0
    3.6537    3.3506    0.0000 O   0  0  0  0  0  0  0  0  0  0  0  0
    2.1948    5.5048    0.0000 C   0  0  2  0  0  0  0  0  0  0  0  0
    2.0665    6.4797    0.0000 H   0  0  0  0  0  0  0  0  0  0  0  0
    1.3433    5.9964    0.0000 C   0  0  0  0  0  0  0  0  0  0  0  0
    0.4917    5.5048    0.0000 C   0  0  2  0  0  0  0  0  0  0  0  0
    0.4917    6.4881    0.0000 H   0  0  0  0  0  0  0  0  0  0  0  0
   -0.3599    5.9964    0.0000 C   0  0  0  0  0  0  0  0  0  0  0  0
   -1.2115    5.5048    0.0000 C   0  0  0  0  0  0  0  0  0  0  0  0
   -1.2115    4.5214    0.0000 C   0  0  0  0  0  0  0  0  0  0  0  0
   -0.3599    4.0298    0.0000 C   0  0  0  0  0  0  0  0  0  0  0  0
    0.4917    4.5214    0.0000 C   0  0  2  0  0  0  0  0  0  0  0  0
    0.4917    3.5381    0.0000 H   0  0  0  0  0  0  0  0  0  0  0  0
    1.3433    4.0298    0.0000 C   0  0  0  0  0  0  0  0  0  0  0  0
    2.1948    4.5214    0.0000 N   0  0  0  0  0  0  0  0  0  0  0  0
    3.0464    4.0298    0.0000 C   0  0  0  0  0  0  0  0  0  0  0  0
    3.0464    3.0464    0.0000 C   0  0  1  0  0  0  0  0  0  0  0  0
    2.5548    2.1948    0.0000 H   0  0  0  0  0  0  0  0  0  0  0  0
    2.0631    3.0464    0.0000 O   0  0  0  0  0  0  0  0  0  0  0  0
    3.8980    2.5548    0.0000 C   0  0  2  0  0  0  0  0  0  0  0  0
    4.3897    3.4064    0.0000 H   0  0  0  0  0  0  0  0  0  0  0  0
    4.7496    2.0631    0.0000 C   0  0  0  0  0  0  0  0  0  0  0  0
    5.6012    2.5548    0.0000 C   0  0  0  0  0  0  0  0  0  0  0  0
    5.6012    3.5381    0.0000 C   0  0  0  0  0  0  0  0  0  0  0  0
    6.4528    4.0298    0.0000 C   0  0  0  0  0  0  0  0  0  0  0  0
    7.3044    3.5381    0.0000 C   0  0  0  0  0  0  0  0  0  0  0  0
    7.3044    2.5548    0.0000 C   0  0  0  0  0  0  0  0  0  0  0  0
    6.4528    2.0631    0.0000 C   0  0  0  0  0  0  0  0  0  0  0  0
    3.4064    1.7032    0.0000 N   0  0  0  0  0  0  0  0  0  0  0  0
    3.8980    0.8516    0.0000 C   0  0  0  0  0  0  0  0  0  0  0  0
    4.8814    0.8516    0.0000 O   0  0  0  0  0  0  0  0  0  0  0  0
    3.4064   -0.0000    0.0000 C   0  0  2  0  0  0  0  0  0  0  0  0
    4.2580   -0.4917    0.0000 H   0  0  0  0  0  0  0  0  0  0  0  0
    2.9147   -0.8516    0.0000 C   0  0  0  0  0  0  0  0  0  0  0  0
    3.4064   -1.7032    0.0000 C   0  0  0  0  0  0  0  0  0  0  0  0
    4.3897   -1.7032    0.0000 N   0  0  0  0  0  0  0  0  0  0  0  0
    2.9147   -2.5548    0.0000 O   0  0  0  0  0  0  0  0  0  0  0  0
    2.5548    0.4917    0.0000 N   0  0  0  0  0  0  0  0  0  0  0  0
    1.7032   -0.0000    0.0000 C   0  0  0  0  0  0  0  0  0  0  0  0
    1.7032   -0.9833    0.0000 O   0  0  0  0  0  0  0  0  0  0  0  0
    0.8516    0.4917    0.0000 C   0  0  0  0  0  0  0  0  0  0  0  0
    0.8516    1.4750    0.0000 C   0  0  0  0  0  0  0  0  0  0  0  0
    0.0000    1.9667    0.0000 C   0  0  0  0  0  0  0  0  0  0  0  0
   -0.8516    1.4750    0.0000 C   0  0  0  0  0  0  0  0  0  0  0  0
   -1.7032    1.9667    0.0000 C   0  0  0  0  0  0  0  0  0  0  0  0
   -2.5548    1.4750    0.0000 C   0  0  0  0  0  0  0  0  0  0  0  0
   -2.5548    0.4917    0.0000 C   0  0  0  0  0  0  0  0  0  0  0  0
   -1.7032    0.0000    0.0000 C   0  0  0  0  0  0  0  0  0  0  0  0
   -0.8516    0.4917    0.0000 C   0  0  0  0  0  0  0  0  0  0  0  0
    0.0000   -0.0000    0.0000 N   0  0  0  0  0  0  0  0  0  0  0  0
  1  2  1  0  0  0  0
  2  3  1  0  0  0  0
  2  4  1  0  0  0  0
  2  5  1  0  0  0  0
  5  6  1  0  0  0  0
  6  7  2  0  0  0  0
  6  8  1  0  0  0  0
  8  9  1  6  0  0  0
  8 20  1  0  0  0  0
  8 10  1  0  0  0  0
 10 11  1  0  0  0  0
 11 12  1  6  0  0  0
 11 17  1  0  0  0  0
 11 13  1  0  0  0  0
 13 14  1  0  0  0  0
 14 15  1  0  0  0  0
 15 16  1  0  0  0  0
 16 17  1  0  0  0  0
 17 18  1  6  0  0  0
 17 19  1  0  0  0  0
 19 20  1  0  0  0  0
 20 21  1  0  0  0  0
 21 22  1  0  0  0  0
 22 23  1  1  0  0  0
 22 24  1  0  0  0  0
 22 25  1  0  0  0  0
 25 26  1  1  0  0  0
 25 27  1  0  0  0  0
 25 34  1  0  0  0  0
 27 28  1  0  0  0  0
 28 33  1  0  0  0  0
 28 29  2  0  0  0  0
 29 30  1  0  0  0  0
 30 31  2  0  0  0  0
 31 32  1  0  0  0  0
 32 33  2  0  0  0  0
 34 35  1  0  0  0  0
 35 36  2  0  0  0  0
 35 37  1  0  0  0  0
 37 38  1  1  0  0  0
 37 39  1  0  0  0  0
 37 43  1  0  0  0  0
 39 40  1  0  0  0  0
 40 41  1  0  0  0  0
 40 42  2  0  0  0  0
 43 44  1  0  0  0  0
 44 45  2  0  0  0  0
 44 46  1  0  0  0  0
 46 55  1  0  0  0  0
 46 47  2  0  0  0  0
 47 48  1  0  0  0  0
 48 49  2  0  0  0  0
 49 54  1  0  0  0  0
 49 50  1  0  0  0  0
 50 51  2  0  0  0  0
 51 52  1  0  0  0  0
 52 53  2  0  0  0  0
 53 54  1  0  0  0  0
 54 55  2  0  0  0  0
M  END
$$$$

 OpenBabel10082008492D

 36 40  0  0  1  0  0  0  0  0999 V2000
    5.6890    0.9133    0.0000 C   0  0  0  0  0  0  0  0  0  0  0  0
    4.7109    0.7053    0.0000 C   0  0  0  0  0  0  0  0  0  0  0  0
    3.7327    0.4974    0.0000 C   0  0  0  0  0  0  0  0  0  0  0  0
    2.7546    0.2895    0.0000 C   0  0  0  0  0  0  0  0  0  0  0  0
    2.0855    1.0327    0.0000 O   0  0  0  0  0  0  0  0  0  0  0  0
    2.4456   -0.6615    0.0000 N   0  0  0  0  0  0  0  0  0  0  0  0
    3.0334   -1.4706    0.0000 C   0  0  0  0  0  0  0  0  0  0  0  0
    2.4456   -2.2796    0.0000 C   0  0  0  0  0  0  0  0  0  0  0  0
    1.4945   -1.9706    0.0000 C   0  0  0  0  0  0  0  0  0  0  0  0
    1.4945   -0.9706    0.0000 C   0  0  1  0  0  0  0  0  0  0  0  0
    1.0878   -0.0570    0.0000 H   0  0  0  0  0  0  0  0  0  0  0  0
    0.5000   -0.8660    0.0000 C   0  0  0  0  0  0  0  0  0  0  0  0
   -0.1691   -1.6092    0.0000 N   0  0  0  0  0  0  0  0  0  0  0  0
   -1.0827   -1.2024    0.0000 C   0  0  0  0  0  0  0  0  0  0  0  0
   -1.9487   -1.7024    0.0000 C   0  0  0  0  0  0  0  0  0  0  0  0
   -1.9487   -2.7024    0.0000 C   0  0  0  0  0  0  0  0  0  0  0  0
   -2.8147   -3.2024    0.0000 C   0  0  0  0  0  0  0  0  0  0  0  0
   -3.6808   -2.7024    0.0000 C   0  0  0  0  0  0  0  0  0  0  0  0
   -4.5468   -3.2024    0.0000 C   0  0  0  0  0  0  0  0  0  0  0  0
   -5.4128   -2.7024    0.0000 O   0  0  0  0  0  0  0  0  0  0  0  0
   -4.5468   -4.2024    0.0000 N   0  0  0  0  0  0  0  0  0  0  0  0
   -5.4128   -4.7024    0.0000 C   0  0  0  0  0  0  0  0  0  0  0  0
   -5.4128   -5.7024    0.0000 C   0  0  0  0  0  0  0  0  0  0  0  0
   -6.2788   -6.2024    0.0000 C   0  0  0  0  0  0  0  0  0  0  0  0
   -7.1449   -5.7024    0.0000 C   0  0  0  0  0  0  0  0  0  0  0  0
   -7.1449   -4.7024    0.0000 C   0  0  0  0  0  0  0  0  0  0  0  0
   -6.2788   -4.2024    0.0000 N   0  0  0  0  0  0  0  0  0  0  0  0
   -3.6808   -1.7024    0.0000 C   0  0  0  0  0  0  0  0  0  0  0  0
   -2.8147   -1.2024    0.0000 C   0  0  0  0  0  0  0  0  0  0  0  0
   -0.9781   -0.2079    0.0000 C   0  0  0  0  0  0  0  0  0  0  0  0
   -1.6473    0.5352    0.0000 C   0  0  0  0  0  0  0  0  0  0  0  0
   -2.6254    0.3273    0.0000 N   0  0  0  0  0  0  0  0  0  0  0  0
   -1.3383    1.4863    0.0000 N   0  0  0  0  0  0  0  0  0  0  0  0
   -0.3601    1.6942    0.0000 C   0  0  0  0  0  0  0  0  0  0  0  0
    0.3090    0.9511    0.0000 C   0  0  0  0  0  0  0  0  0  0  0  0
    0.0000   -0.0000    0.0000 N   0  0  0  0  0  0  0  0  0  0  0  0
  1  2  1  0  0  0  0
  2  3  3  0  0  0  0
  3  4  1  0  0  0  0
  4  5  2  0  0  0  0
  4  6  1  0  0  0  0
  6 10  1  0  0  0  0
  6  7  1  0  0  0  0
  7  8  1  0  0  0  0
  8  9  1  0  0  0  0
  9 10  1  0  0  0  0
 10 11  1  6  0  0  0
 10 12  1  0  0  0  0
 12 36  1  0  0  0  0
 12 13  2  0  0  0  0
 13 14  1  0  0  0  0
 14 15  1  0  0  0  0
 14 30  2  0  0  0  0
 15 29  1  0  0  0  0
 15 16  2  0  0  0  0
 16 17  1  0  0  0  0
 17 18  2  0  0  0  0
 18 19  1  0  0  0  0
 18 28  1  0  0  0  0
 19 20  2  0  0  0  0
 19 21  1  0  0  0  0
 21 22  1  0  0  0  0
 22 27  1  0  0  0  0
 22 23  2  0  0  0  0
 23 24  1  0  0  0  0
 24 25  2  0  0  0  0
 25 26  1  0  0  0  0
 26 27  2  0  0  0  0
 28 29  2  0  0  0  0
 30 36  1  0  0  0  0
 30 31  1  0  0  0  0
 31 32  1  0  0  0  0
 31 33  2  0  0  0  0
 33 34  1  0  0  0  0
 34 35  2  0  0  0  0
 35 36  1  0  0  0  0
M  END
$$$$

 OpenBabel10082008492D

 18 19  0  0  0  0  0  0  0  0999 V2000
   -3.6955    0.7654    0.0000 C   0  0  0  0  0  0  0  0  0  0  0  0
   -2.7716    0.3827    0.0000 C   0  0  0  0  0  0  0  0  0  0  0  0
   -1.9783    0.9914    0.0000 O   0  0  0  0  0  0  0  0  0  0  0  0
   -1.0544    0.6088    0.0000 C   0  0  0  0  0  0  0  0  0  0  0  0
   -0.2611    1.2175    0.0000 O   0  0  0  0  0  0  0  0  0  0  0  0
   -0.9239   -0.3827    0.0000 C   0  0  0  0  0  0  0  0  0  0  0  0
   -1.7899   -0.8827    0.0000 C   0  0  0  0  0  0  0  0  0  0  0  0
   -2.6559   -0.3827    0.0000 C   0  0  0  0  0  0  0  0  0  0  0  0
   -3.5220   -0.8827    0.0000 C   0  0  0  0  0  0  0  0  0  0  0  0
   -3.5220   -1.8827    0.0000 C   0  0  0  0  0  0  0  0  0  0  0  0
   -2.6559   -2.3827    0.0000 C   0  0  0  0  0  0  0  0  0  0  0  0
   -1.7899   -1.8827    0.0000 C   0  0  0  0  0  0  0  0  0  0  0  0
   -1.0544   -1.3741    0.0000 C   0  0  0  0  0  0  0  0  0  0  0  0
   -0.2611   -1.9829    0.0000 C   0  0  0  0  0  0  0  0  0  0  0  0
    0.6628   -1.6002    0.0000 N   0  0  0  0  0  0  0  0  0  0  0  0
    1.4562   -2.2090    0.0000 C   0  0  0  0  0  0  0  0  0  0  0  0
    0.7934   -0.6088    0.0000 C   0  0  0  0  0  0  0  0  0  0  0  0
    0.0000   -0.0000    0.0000 C   0  0  0  0  0  0  0  0  0  0  0  0
  1  2  1  0  0  0  0
  2  3  1  0  0  0  0
  3  4  1  0  0  0  0
  4  5  2  0  0  0  0
  4  6  1  0  0  0  0
  6 18  1  0  0  0  0
  6  7  1  0  0  0  0
  6 13  1  0  0  0  0
  7 12  1  0  0  0  0
  7  8  2  0  0  0  0
  8  9  1  0  0  0  0
  9 10  2  0  0  0  0
 10 11  1  0  0  0  0
 11 12  2  0  0  0  0
 13 14  1  0  0  0  0
 14 15  1  0  0  0  0
 15 16  1  0  0  0  0
 15 17  1  0  0  0  0
 17 18  1  0  0  0  0
M  END
$$$$

 OpenBabel10082008492D

 19 19  0  0  0  0  0  0  0  0999 V2000
    1.7321    3.0000    0.0000 C   0  0  0  0  0  0  0  0  0  0  0  0
    0.8660    3.5000    0.0000 C   0  0  0  0  0  0  0  0  0  0  0  0
    0.8660    4.5000    0.0000 O   0  0  0  0  0  0  0  0  0  0  0  0
    0.0000    3.0000    0.0000 C   0  0  0  0  0  0  0  0  0  0  0  0
    0.0000    2.0000    0.0000 C   0  0  0  0  0  0  0  0  0  0  0  0
    0.0000    1.0000    0.0000 N   0  0  0  0  0  0  0  0  0  0  0  0
   -0.8660    3.5000    0.0000 C   0  0  0  0  0  0  0  0  0  0  0  0
   -1.7321    3.0000    0.0000 O   0  0  0  0  0  0  0  0  0  0  0  0
   -0.8660    4.5000    0.0000 N   0  0  0  0  0  0  0  0  0  0  0  0
   -1.7321    5.0000    0.0000 C   0  0  0  0  0  0  0  0  0  0  0  0
   -1.7321    6.0000    0.0000 C   0  0  0  0  0  0  0  0  0  0  0  0
   -2.5981    6.5000    0.0000 C   0  0  0  0  0  0  0  0  0  0  0  0
   -3.4641    6.0000    0.0000 C   0  0  0  0  0  0  0  0  0  0  0  0
   -4.3301    6.5000    0.0000 C   0  0  0  0  0  0  0  0  0  0  0  0
   -4.8301    7.3660    0.0000 F   0  0  0  0  0  0  0  0  0  0  0  0
   -3.8301    7.3660    0.0000 F   0  0  0  0  0  0  0  0  0  0  0  0
   -5.1962    6.0000    0.0000 F   0  0  0  0  0  0  0  0  0  0  0  0
   -3.4641    5.0000    0.0000 C   0  0  0  0  0  0  0  0  0  0  0  0
   -2.5981    4.5000    0.0000 C   0  0  0  0  0  0  0  0  0  0  0  0
  1  2  1  0  0  0  0
  2  3  1  0  0  0  0
  2  4  2  0  0  0  0
  4  5  1  0  0  0  0
  4  7  1  0  0  0  0
  5  6  3  0  0  0  0
  7  8  2  0  0  0  0
  7  9  1  0  0  0  0
  9 10  1  0  0  0  0
 10 19  1  0  0  0  0
 10 11  2  0  0  0  0
 11 12  1  0  0  0  0
 12 13  2  0  0  0  0
 13 14  1  0  0  0  0
 13 18  1  0  0  0  0
 14 15  1  0  0  0  0
 14 16  1  0  0  0  0
 14 17  1  0  0  0  0
 18 19  2  0  0  0  0
M  END
$$$$

 OpenBabel10082008492D

 25 27  0  0  0  0  0  0  0  0999 V2000
   -1.7321    2.0000    0.0000 C   0  0  0  0  0  0  0  0  0  0  0  0
   -2.5981    1.5000    0.0000 C   0  0  0  0  0  0  0  0  0  0  0  0
   -2.5981    0.5000    0.0000 C   0  0  0  0  0  0  0  0  0  0  0  0
   -3.4641    0.0000    0.0000 O   0  0  0  0  0  0  0  0  0  0  0  0
   -1.7321    0.0000    0.0000 N   0  0  0  0  0  0  0  0  0  0  0  0
   -1.7321   -1.0000    0.0000 C   0  0  0  0  0  0  0  0  0  0  0  0
   -0.8660   -1.5000    0.0000 C   0  0  0  0  0  0  0  0  0  0  0  0
   -0.8660   -2.5000    0.0000 C   0  0  0  0  0  0  0  0  0  0  0  0
   -1.7321   -3.0000    0.0000 C   0  0  0  0  0  0  0  0  0  0  0  0
   -2.5981   -2.5000    0.0000 C   0  0  0  0  0  0  0  0  0  0  0  0
   -2.5981   -1.5000    0.0000 C   0  0  0  0  0  0  0  0  0  0  0  0
   -0.8660    0.5000    0.0000 C   0  0  0  0  0  0  0  0  0  0  0  0
   -0.8660    1.5000    0.0000 C   0  0  0  0  0  0  0  0  0  0  0  0
   -0.0000    2.0000    0.0000 C   0  0  0  0  0  0  0  0  0  0  0  0
    0.8660    1.5000    0.0000 N   0  0  0  0  0  0  0  0  0  0  0  0
    1.7321    2.0000    0.0000 C   0  0  0  0  0  0  0  0  0  0  0  0
    2.5981    1.5000    0.0000 C   0  0  0  0  0  0  0  0  0  0  0  0
    2.5981    0.5000    0.0000 C   0  0  0  0  0  0  0  0  0  0  0  0
    3.4641   -0.0000    0.0000 C   0  0  0  0  0  0  0  0  0  0  0  0
    3.4641   -1.0000    0.0000 C   0  0  0  0  0  0  0  0  0  0  0  0
    2.5981   -1.5000    0.0000 C   0  0  0  0  0  0  0  0  0  0  0  0
    1.7321   -1.0000    0.0000 C   0  0  0  0  0  0  0  0  0  0  0  0
    1.7321    0.0000    0.0000 C   0  0  0  0  0  0  0  0  0  0  0  0
    0.8660    0.5000    0.0000 C   0  0  0  0  0  0  0  0  0  0  0  0
    0.0000   -0.0000    0.0000 C   0  0  0  0  0  0  0  0  0  0  0  0
  1  2  1  0  0  0  0
  2  3  1  0  0  0  0
  3  4  2  0  0  0  0
  3  5  1  0  0  0  0
  5  6  1  0  0  0  0
  5 12  1  0  0  0  0
  6 11  1  0  0  0  0
  6  7  2  0  0  0  0
  7  8  1  0  0  0  0
  8  9  2  0  0  0  0
  9 10  1  0  0  0  0
 10 11  2  0  0  0  0
 12 25  1  0  0  0  0
 12 13  1  0  0  0  0
 13 14  1  0  0  0  0
 14 15  1  0  0  0  0
 15 16  1  0  0  0  0
 15 24  1  0  0  0  0
 16 17  1  0  0  0  0
 17 18  1  0  0  0  0
 18 23  1  0  0  0  0
 18 19  2  0  0  0  0
 19 20  1  0  0  0  0
 20 21  2  0  0  0  0
 21 22  1  0  0  0  0
 22 23  2  0  0  0  0
 24 25  1  0  0  0  0
M  END
$$$$

 OpenBabel10082008492D

 15 16  0  0  0  0  0  0  0  0999 V2000
    1.5878   -0.8090    0.0000 N   0  0  0  0  0  0  0  0  0  0  0  0
    0.5878   -0.8090    0.0000 C   0  0  0  0  0  0  0  0  0  0  0  0
   -0.0000   -1.6180    0.0000 N   0  0  0  0  0  0  0  0  0  0  0  0
   -0.9511   -1.3090    0.0000 C   0  0  0  0  0  0  0  0  0  0  0  0
   -1.8171   -1.8090    0.0000 C   0  0  0  0  0  0  0  0  0  0  0  0
   -2.6831   -1.3090    0.0000 C   0  0  0  0  0  0  0  0  0  0  0  0
   -2.6831   -0.3090    0.0000 C   0  0  0  0  0  0  0  0  0  0  0  0
   -3.5491    0.1910    0.0000 O   0  0  0  0  0  0  0  0  0  0  0  0
   -3.5491    1.1910    0.0000 C   0  0  0  0  0  0  0  0  0  0  0  0
   -4.0491    2.0570    0.0000 F   0  0  0  0  0  0  0  0  0  0  0  0
   -4.5491    1.1910    0.0000 F   0  0  0  0  0  0  0  0  0  0  0  0
   -2.6831    1.6910    0.0000 F   0  0  0  0  0  0  0  0  0  0  0  0
   -1.8171    0.1910    0.0000 C   0  0  0  0  0  0  0  0  0  0  0  0
   -0.9511   -0.3090    0.0000 C   0  0  0  0  0  0  0  0  0  0  0  0
   -0.0000   -0.0000    0.0000 S   0  0  0  0  0  0  0  0  0  0  0  0
  1  2  1  0  0  0  0
  2 15  1  0  0  0  0
  2  3  2  0  0  0  0
  3  4  1  0  0  0  0
  4 14  1  0  0  0  0
  4  5  2  0  0  0  0
  5  6  1  0  0  0  0
  6  7  2  0  0  0  0
  7  8  1  0  0  0  0
  7 13  1  0  0  0  0
  8  9  1  0  0  0  0
  9 10  1  0  0  0  0
  9 11  1  0  0  0  0
  9 12  1  0  0  0  0
 13 14  2  0  0  0  0
 14 15  1  0  0  0  0
M  END
$$$$

 OpenBabel10082008492D

 29 32  0  0  1  0  0  0  0  0999 V2000
   -1.7321   -2.0000    0.0000 O   0  0  0  0  0  0  0  0  0  0  0  0
   -0.8660   -1.5000    0.0000 C   0  0  3  0  0  0  0  0  0  0  0  0
    0.0000   -2.0000    0.0000 C   0  0  0  0  0  0  0  0  0  0  0  0
    0.0000   -3.0000    0.0000 N   0  0  0  0  0  0  0  0  0  0  0  0
    0.8660   -3.5000    0.0000 C   0  0  0  0  0  0  0  0  0  0  0  0
    1.7321   -3.0000    0.0000 C   0  0  3  0  0  0  0  0  0  0  0  0
    2.5981   -3.5000    0.0000 O   0  0  0  0  0  0  0  0  0  0  0  0
    1.7321   -2.0000    0.0000 C   0  0  3  0  0  0  0  0  0  0  0  0
    0.8660   -1.5000    0.0000 C   0  0  0  0  0  0  0  0  0  0  0  0
    0.8660   -0.5000    0.0000 C   0  0  0  0  0  0  0  0  0  0  0  0
    1.7321    0.0000    0.0000 C   0  0  0  0  0  0  0  0  0  0  0  0
    1.7321    1.0000    0.0000 C   0  0  0  0  0  0  0  0  0  0  0  0
    2.5981    1.5000    0.0000 C   0  0  0  0  0  0  0  0  0  0  0  0
    2.5981    2.5000    0.0000 F   0  0  0  0  0  0  0  0  0  0  0  0
    3.4641    1.0000    0.0000 C   0  0  0  0  0  0  0  0  0  0  0  0
    3.4641    0.0000    0.0000 C   0  0  0  0  0  0  0  0  0  0  0  0
    2.5981   -0.5000    0.0000 C   0  0  0  0  0  0  0  0  0  0  0  0
    2.5981   -1.5000    0.0000 O   0  0  0  0  0  0  0  0  0  0  0  0
   -0.8660   -0.5000    0.0000 C   0  0  3  0  0  0  0  0  0  0  0  0
   -1.7321   -0.0000    0.0000 C   0  0  0  0  0  0  0  0  0  0  0  0
   -1.7321    1.0000    0.0000 C   0  0  0  0  0  0  0  0  0  0  0  0
   -0.8660    1.5000    0.0000 C   0  0  0  0  0  0  0  0  0  0  0  0
   -0.8660    2.5000    0.0000 C   0  0  0  0  0  0  0  0  0  0  0  0
   -0.0000    3.0000    0.0000 C   0  0  0  0  0  0  0  0  0  0  0  0
   -0.0000    4.0000    0.0000 F   0  0  0  0  0  0  0  0  0  0  0  0
    0.8660    2.5000    0.0000 C   0  0  0  0  0  0  0  0  0  0  0  0
    0.8660    1.5000    0.0000 C   0  0  0  0  0  0  0  0  0  0  0  0
   -0.0000    1.0000    0.0000 C   0  0  0  0  0  0  0  0  0  0  0  0
    0.0000    0.0000    0.0000 O   0  0  0  0  0  0  0  0  0  0  0  0
  1  2  1  0  0  0  0
  2  3  1  0  0  0  0
  2 19  1  0  0  0  0
  3  4  1  0  0  0  0
  4  5  1  0  0  0  0
  5  6  1  0  0  0  0
  6  7  1  0  0  0  0
  6  8  1  0  0  0  0
  8 18  1  0  0  0  0
  8  9  1  0  0  0  0
  9 10  1  0  0  0  0
 10 11  1  0  0  0  0
 11 17  1  0  0  0  0
 11 12  2  0  0  0  0
 12 13  1  0  0  0  0
 13 14  1  0  0  0  0
 13 15  2  0  0  0  0
 15 16  1  0  0  0  0
 16 17  2  0  0  0  0
 17 18  1  0  0  0  0
 19 29  1  0  0  0  0
 19 20  1  0  0  0  0
 20 21  1  0  0  0  0
 21 22  1  0  0  0  0
 22 28  1  0  0  0  0
 22 23  2  0  0  0  0
 23 24  1  0  0  0  0
 24 25  1  0  0  0  0
 24 26  2  0  0  0  0
 26 27  1  0  0  0  0
 27 28  2  0  0  0  0
 28 29  1  0  0  0  0
M  END
$$$$

 OpenBabel10082008492D

 28 30  0  0  1  0  0  0  0  0999 V2000
    0.0000    2.0000    0.0000 C   0  0  0  0  0  0  0  0  0  0  0  0
    0.8660    1.5000    0.0000 O   0  0  0  0  0  0  0  0  0  0  0  0
    0.8660    0.5000    0.0000 C   0  0  0  0  0  0  0  0  0  0  0  0
    1.7321    0.0000    0.0000 C   0  0  0  0  0  0  0  0  0  0  0  0
    1.7321   -1.0000    0.0000 C   0  0  0  0  0  0  0  0  0  0  0  0
    2.5981   -1.5000    0.0000 N   0  0  0  0  0  0  0  0  0  0  0  0
    2.5981   -2.5000    0.0000 C   0  0  0  0  0  0  0  0  0  0  0  0
    3.4641   -3.0000    0.0000 N   0  0  0  0  0  0  0  0  0  0  0  0
    3.4641   -4.0000    0.0000 C   0  0  0  0  0  0  0  0  0  0  0  0
    4.3301   -2.5000    0.0000 C   0  0  0  0  0  0  0  0  0  0  0  0
    5.1962   -3.0000    0.0000 C   0  0  0  0  0  0  0  0  0  0  0  0
    6.0622   -2.5000    0.0000 C   0  0  0  0  0  0  0  0  0  0  0  0
    6.9282   -3.0000    0.0000 N   0  0  0  0  0  0  0  0  0  0  0  0
    6.9282   -4.0000    0.0000 C   0  0  0  0  0  0  0  0  0  0  0  0
    6.0622   -4.5000    0.0000 O   0  0  0  0  0  0  0  0  0  0  0  0
    7.7942   -4.5000    0.0000 C   0  0  3  0  0  0  0  0  0  0  0  0
    8.7078   -4.0933    0.0000 C   0  0  0  0  0  0  0  0  0  0  0  0
    9.3769   -4.8364    0.0000 C   0  0  0  0  0  0  0  0  0  0  0  0
    8.8769   -5.7024    0.0000 C   0  0  0  0  0  0  0  0  0  0  0  0
    7.8988   -5.4945    0.0000 O   0  0  0  0  0  0  0  0  0  0  0  0
    1.7321   -3.0000    0.0000 N   0  0  0  0  0  0  0  0  0  0  0  0
    0.8660   -2.5000    0.0000 C   0  0  0  0  0  0  0  0  0  0  0  0
   -0.0000   -3.0000    0.0000 N   0  0  0  0  0  0  0  0  0  0  0  0
    0.8660   -1.5000    0.0000 C   0  0  0  0  0  0  0  0  0  0  0  0
   -0.0000   -1.0000    0.0000 C   0  0  0  0  0  0  0  0  0  0  0  0
    0.0000   -0.0000    0.0000 C   0  0  0  0  0  0  0  0  0  0  0  0
   -0.8660    0.5000    0.0000 O   0  0  0  0  0  0  0  0  0  0  0  0
   -1.7321    0.0000    0.0000 C   0  0  0  0  0  0  0  0  0  0  0  0
  1  2  1  0  0  0  0
  2  3  1  0  0  0  0
  3 26  1  0  0  0  0
  3  4  2  0  0  0  0
  4  5  1  0  0  0  0
  5 24  1  0  0  0  0
  5  6  2  0  0  0  0
  6  7  1  0  0  0  0
  7  8  1  0  0  0  0
  7 21  2  0  0  0  0
  8  9  1  0  0  0  0
  8 10  1  0  0  0  0
 10 11  1  0  0  0  0
 11 12  1  0  0  0  0
 12 13  1  0  0  0  0
 13 14  1  0  0  0  0
 14 15  2  0  0  0  0
 14 16  1  0  0  0  0
 16 20  1  0  0  0  0
 16 17  1  0  0  0  0
 17 18  1  0  0  0  0
 18 19  1  0  0  0  0
 19 20  1  0  0  0  0
 21 22  1  0  0  0  0
 22 23  1  0  0  0  0
 22 24  2  0  0  0  0
 24 25  1  0  0  0  0
 25 26  2  0  0  0  0
 26 27  1  0  0  0  0
 27 28  1  0  0  0  0
M  END
$$$$

 OpenBabel10082008492D

 10 10  0  0  0  0  0  0  0  0999 V2000
    3.4641    1.0000    0.0000 N   0  0  0  0  0  0  0  0  0  0  0  0
    2.5981    1.5000    0.0000 N   0  0  0  0  0  0  0  0  0  0  0  0
    1.7321    1.0000    0.0000 C   0  0  0  0  0  0  0  0  0  0  0  0
    1.7321   -0.0000    0.0000 C   0  0  0  0  0  0  0  0  0  0  0  0
    0.8660   -0.5000    0.0000 C   0  0  0  0  0  0  0  0  0  0  0  0
    0.8660   -1.5000    0.0000 C   0  0  0  0  0  0  0  0  0  0  0  0
    0.0000   -2.0000    0.0000 C   0  0  0  0  0  0  0  0  0  0  0  0
   -0.8660   -1.5000    0.0000 C   0  0  0  0  0  0  0  0  0  0  0  0
   -0.8660   -0.5000    0.0000 C   0  0  0  0  0  0  0  0  0  0  0  0
   -0.0000   -0.0000    0.0000 C   0  0  0  0  0  0  0  0  0  0  0  0
  1  2  1  0  0  0  0
  2  3  1  0  0  0  0
  3  4  1  0  0  0  0
  4  5  1  0  0  0  0
  5 10  1  0  0  0  0
  5  6  2  0  0  0  0
  6  7  1  0  0  0  0
  7  8  2  0  0  0  0
  8  9  1  0  0  0  0
  9 10  2  0  0  0  0
M  END
$$$$

 OpenBabel10082008492D

 21 23  0  0  1  0  0  0  0  0999 V2000
    1.5522    0.6772    0.0000 O   0  0  0  0  0  0  0  0  0  0  0  0
    0.9888   -0.1490    0.0000 C   0  0  0  0  0  0  0  0  0  0  0  0
    1.4888   -1.0151    0.0000 N   0  0  0  0  0  0  0  0  0  0  0  0
    1.1235   -1.9459    0.0000 C   0  0  0  0  0  0  0  0  0  0  0  0
    1.8565   -2.6261    0.0000 C   0  0  0  0  0  0  0  0  0  0  0  0
    1.6340   -3.6010    0.0000 C   0  0  0  0  0  0  0  0  0  0  0  0
    0.6784   -3.8958    0.0000 C   0  0  0  0  0  0  0  0  0  0  0  0
    0.4559   -4.8707    0.0000 Cl  0  0  0  0  0  0  0  0  0  0  0  0
   -0.0546   -3.2156    0.0000 C   0  0  0  0  0  0  0  0  0  0  0  0
    0.1679   -2.2407    0.0000 C   0  0  0  0  0  0  0  0  0  0  0  0
   -0.6583   -1.6774    0.0000 C   0  0  0  0  0  0  0  0  0  0  0  0
   -1.5243   -2.1774    0.0000 C   0  0  0  0  0  0  0  0  0  0  0  0
   -1.5243   -3.1774    0.0000 C   0  0  0  0  0  0  0  0  0  0  0  0
   -2.3904   -3.6774    0.0000 C   0  0  0  0  0  0  0  0  0  0  0  0
   -3.2564   -3.1774    0.0000 C   0  0  0  0  0  0  0  0  0  0  0  0
   -3.2564   -2.1774    0.0000 C   0  0  0  0  0  0  0  0  0  0  0  0
   -2.3904   -1.6774    0.0000 C   0  0  0  0  0  0  0  0  0  0  0  0
   -2.3904   -0.6774    0.0000 Cl  0  0  0  0  0  0  0  0  0  0  0  0
   -0.7331   -0.6802    0.0000 N   0  0  0  0  0  0  0  0  0  0  0  0
    0.0000   -0.0000    0.0000 C   0  0  3  0  0  0  0  0  0  0  0  0
   -0.2948    0.9556    0.0000 O   0  0  0  0  0  0  0  0  0  0  0  0
  1  2  2  0  0  0  0
  2 20  1  0  0  0  0
  2  3  1  0  0  0  0
  3  4  1  0  0  0  0
  4 10  1  0  0  0  0
  4  5  2  0  0  0  0
  5  6  1  0  0  0  0
  6  7  2  0  0  0  0
  7  8  1  0  0  0  0
  7  9  1  0  0  0  0
  9 10  2  0  0  0  0
 10 11  1  0  0  0  0
 11 12  1  0  0  0  0
 11 19  2  0  0  0  0
 12 17  1  0  0  0  0
 12 13  2  0  0  0  0
 13 14  1  0  0  0  0
 14 15  2  0  0  0  0
 15 16  1  0  0  0  0
 16 17  2  0  0  0  0
 17 18  1  0  0  0  0
 19 20  1  0  0  0  0
 20 21  1  0  0  0  0
M  END
$$$$

 OpenBabel10082008492D

 17 18  0  0  0  0  0  0  0  0999 V2000
    0.2788   -1.7601    0.0000 O   0  0  0  0  0  0  0  0  0  0  0  0
   -0.3090   -0.9511    0.0000 C   0  0  0  0  0  0  0  0  0  0  0  0
   -1.3090   -0.9511    0.0000 C   0  0  0  0  0  0  0  0  0  0  0  0
   -1.6180   -0.0000    0.0000 N   0  0  0  0  0  0  0  0  0  0  0  0
   -2.5691    0.3090    0.0000 N   0  0  0  0  0  0  0  0  0  0  0  0
   -3.3122   -0.3601    0.0000 C   0  0  0  0  0  0  0  0  0  0  0  0
   -4.2633   -0.0511    0.0000 C   0  0  0  0  0  0  0  0  0  0  0  0
   -5.0723   -0.6389    0.0000 C   0  0  0  0  0  0  0  0  0  0  0  0
   -5.8813   -0.0511    0.0000 C   0  0  0  0  0  0  0  0  0  0  0  0
   -5.5723    0.9000    0.0000 C   0  0  0  0  0  0  0  0  0  0  0  0
   -6.1601    1.7090    0.0000 N   0  3  0  0  0  0  0  0  0  0  0  0
   -5.7534    2.6225    0.0000 O   0  0  0  0  0  0  0  0  0  0  0  0
   -7.1546    1.6044    0.0000 O   0  5  0  0  0  0  0  0  0  0  0  0
   -4.5723    0.9000    0.0000 O   0  0  0  0  0  0  0  0  0  0  0  0
   -0.8090    0.5878    0.0000 C   0  0  0  0  0  0  0  0  0  0  0  0
   -0.8090    1.5878    0.0000 O   0  0  0  0  0  0  0  0  0  0  0  0
   -0.0000   -0.0000    0.0000 N   0  0  0  0  0  0  0  0  0  0  0  0
  1  2  2  0  0  0  0
  2 17  1  0  0  0  0
  2  3  1  0  0  0  0
  3  4  1  0  0  0  0
  4  5  1  0  0  0  0
  4 15  1  0  0  0  0
  5  6  2  0  0  0  0
  6  7  1  0  0  0  0
  7 14  1  0  0  0  0
  7  8  2  0  0  0  0
  8  9  1  0  0  0  0
  9 10  2  0  0  0  0
 10 11  1  0  0  0  0
 10 14  1  0  0  0  0
 11 12  2  0  0  0  0
 11 13  1  0  0  0  0
 15 16  2  0  0  0  0
 15 17  1  0  0  0  0
M  CHG  2  11   1  13  -1
M  END
$$$$

 OpenBabel10082008492D

 34 34  0  0  1  0  0  0  0  0999 V2000
    2.5981    1.5000    0.0000 C   0  0  0  0  0  0  0  0  0  0  0  0
    1.7321    2.0000    0.0000 C   0  0  0  0  0  0  0  0  0  0  0  0
    1.7321    3.0000    0.0000 O   0  0  0  0  0  0  0  0  0  0  0  0
    0.8660    1.5000    0.0000 N   0  0  0  0  0  0  0  0  0  0  0  0
    0.0000    2.0000    0.0000 C   0  0  0  0  0  0  0  0  0  0  0  0
    0.0000    3.0000    0.0000 C   0  0  3  0  0  0  0  0  0  0  0  0
    0.8660    3.5000    0.0000 O   0  0  0  0  0  0  0  0  0  0  0  0
   -0.8660    3.5000    0.0000 C   0  0  0  0  0  0  0  0  0  0  0  0
   -0.8660    4.5000    0.0000 O   0  0  0  0  0  0  0  0  0  0  0  0
    0.8660    0.5000    0.0000 C   0  0  0  0  0  0  0  0  0  0  0  0
    1.7321    0.0000    0.0000 C   0  0  0  0  0  0  0  0  0  0  0  0
    2.5981    0.5000    0.0000 I   0  0  0  0  0  0  0  0  0  0  0  0
    1.7321   -1.0000    0.0000 C   0  0  0  0  0  0  0  0  0  0  0  0
    2.5981   -1.5000    0.0000 C   0  0  0  0  0  0  0  0  0  0  0  0
    2.5981   -2.5000    0.0000 O   0  0  0  0  0  0  0  0  0  0  0  0
    3.4641   -1.0000    0.0000 N   0  0  0  0  0  0  0  0  0  0  0  0
    4.3301   -1.5000    0.0000 C   0  0  0  0  0  0  0  0  0  0  0  0
    4.3301   -2.5000    0.0000 C   0  0  3  0  0  0  0  0  0  0  0  0
    3.4641   -3.0000    0.0000 O   0  0  0  0  0  0  0  0  0  0  0  0
    5.1962   -3.0000    0.0000 C   0  0  0  0  0  0  0  0  0  0  0  0
    5.1962   -4.0000    0.0000 O   0  0  0  0  0  0  0  0  0  0  0  0
    0.8660   -1.5000    0.0000 C   0  0  0  0  0  0  0  0  0  0  0  0
    0.8660   -2.5000    0.0000 I   0  0  0  0  0  0  0  0  0  0  0  0
    0.0000   -1.0000    0.0000 C   0  0  0  0  0  0  0  0  0  0  0  0
   -0.8660   -1.5000    0.0000 C   0  0  0  0  0  0  0  0  0  0  0  0
   -1.7321   -1.0000    0.0000 O   0  0  0  0  0  0  0  0  0  0  0  0
   -0.8660   -2.5000    0.0000 N   0  0  0  0  0  0  0  0  0  0  0  0
   -1.7321   -3.0000    0.0000 C   0  0  0  0  0  0  0  0  0  0  0  0
   -1.7321   -4.0000    0.0000 C   0  0  3  0  0  0  0  0  0  0  0  0
   -2.5981   -4.5000    0.0000 O   0  0  0  0  0  0  0  0  0  0  0  0
   -0.8660   -4.5000    0.0000 C   0  0  0  0  0  0  0  0  0  0  0  0
   -0.8660   -5.5000    0.0000 O   0  0  0  0  0  0  0  0  0  0  0  0
   -0.0000   -0.0000    0.0000 C   0  0  0  0  0  0  0  0  0  0  0  0
   -0.8660    0.5000    0.0000 I   0  0  0  0  0  0  0  0  0  0  0  0
  1  2  1  0  0  0  0
  2  3  2  0  0  0  0
  2  4  1  0  0  0  0
  4  5  1  0  0  0  0
  4 10  1  0  0  0  0
  5  6  1  0  0  0  0
  6  7  1  0  0  0  0
  6  8  1  0  0  0  0
  8  9  1  0  0  0  0
 10 33  1  0  0  0  0
 10 11  2  0  0  0  0
 11 12  1  0  0  0  0
 11 13  1  0  0  0  0
 13 14  1  0  0  0  0
 13 22  2  0  0  0  0
 14 15  2  0  0  0  0
 14 16  1  0  0  0  0
 16 17  1  0  0  0  0
 17 18  1  0  0  0  0
 18 19  1  0  0  0  0
 18 20  1  0  0  0  0
 20 21  1  0  0  0  0
 22 23  1  0  0  0  0
 22 24  1  0  0  0  0
 24 25  1  0  0  0  0
 24 33  2  0  0  0  0
 25 26  2  0  0  0  0
 25 27  1  0  0  0  0
 27 28  1  0  0  0  0
 28 29  1  0  0  0  0
 29 30  1  0  0  0  0
 29 31  1  0  0  0  0
 31 32  1  0  0  0  0
 33 34  1  0  0  0  0
M  END
$$$$

 OpenBabel10082008492D

 17 18  0  0  0  0  0  0  0  0999 V2000
    0.3660   -2.3660    0.0000 C   0  0  0  0  0  0  0  0  0  0  0  0
    0.8660   -1.5000    0.0000 C   0  0  0  0  0  0  0  0  0  0  0  0
    1.7321   -2.0000    0.0000 C   0  0  0  0  0  0  0  0  0  0  0  0
    1.3660   -0.6340    0.0000 C   0  0  0  0  0  0  0  0  0  0  0  0
    0.8660    0.2321    0.0000 O   0  0  0  0  0  0  0  0  0  0  0  0
    2.3660   -0.6340    0.0000 C   0  0  0  0  0  0  0  0  0  0  0  0
    2.8660   -1.5000    0.0000 C   0  0  0  0  0  0  0  0  0  0  0  0
    3.8660   -1.5000    0.0000 C   0  0  0  0  0  0  0  0  0  0  0  0
    4.3660   -0.6340    0.0000 C   0  0  0  0  0  0  0  0  0  0  0  0
    3.8660    0.2321    0.0000 N   0  0  0  0  0  0  0  0  0  0  0  0
    2.8660    0.2321    0.0000 C   0  0  0  0  0  0  0  0  0  0  0  0
    0.0000   -1.0000    0.0000 C   0  0  0  0  0  0  0  0  0  0  0  0
   -0.8660   -1.5000    0.0000 C   0  0  0  0  0  0  0  0  0  0  0  0
   -1.7321   -1.0000    0.0000 C   0  0  0  0  0  0  0  0  0  0  0  0
   -1.7321   -0.0000    0.0000 C   0  0  0  0  0  0  0  0  0  0  0  0
   -0.8660    0.5000    0.0000 N   0  0  0  0  0  0  0  0  0  0  0  0
    0.0000    0.0000    0.0000 C   0  0  0  0  0  0  0  0  0  0  0  0
  1  2  1  0  0  0  0
  2  3  1  0  0  0  0
  2  4  1  0  0  0  0
  2 12  1  0  0  0  0
  4  5  2  0  0  0  0
  4  6  1  0  0  0  0
  6 11  1  0  0  0  0
  6  7  2  0  0  0  0
  7  8  1  0  0  0  0
  8  9  2  0  0  0  0
  9 10  1  0  0  0  0
 10 11  2  0  0  0  0
 12 17  1  0  0  0  0
 12 13  2  0  0  0  0
 13 14  1  0  0  0  0
 14 15  2  0  0  0  0
 15 16  1  0  0  0  0
 16 17  2  0  0  0  0
M  END
$$$$

 OpenBabel10082008492D

 33 35  0  0  0  0  0  0  0  0999 V2000
   -3.4641   -2.0000    0.0000 C   0  0  0  0  0  0  0  0  0  0  0  0
   -2.5981   -1.5000    0.0000 C   0  0  0  0  0  0  0  0  0  0  0  0
   -2.0981   -0.6340    0.0000 C   0  0  0  0  0  0  0  0  0  0  0  0
   -3.0981   -0.6340    0.0000 O   0  0  0  0  0  0  0  0  0  0  0  0
   -1.7321   -2.0000    0.0000 C   0  0  0  0  0  0  0  0  0  0  0  0
   -0.8660   -1.5000    0.0000 N   0  0  0  0  0  0  0  0  0  0  0  0
   -0.8660   -0.5000    0.0000 C   0  0  0  0  0  0  0  0  0  0  0  0
   -1.7321   -0.0000    0.0000 N   0  0  0  0  0  0  0  0  0  0  0  0
   -1.7321    1.0000    0.0000 C   0  0  0  0  0  0  0  0  0  0  0  0
   -2.5981    1.5000    0.0000 N   0  0  0  0  0  0  0  0  0  0  0  0
   -2.5981    2.5000    0.0000 C   0  0  0  0  0  0  0  0  0  0  0  0
   -3.4641    3.0000    0.0000 C   0  0  0  0  0  0  0  0  0  0  0  0
   -3.4641    4.0000    0.0000 C   0  0  0  0  0  0  0  0  0  0  0  0
   -2.5981    4.5000    0.0000 N   0  0  0  0  0  0  0  0  0  0  0  0
   -1.7321    4.0000    0.0000 C   0  0  0  0  0  0  0  0  0  0  0  0
   -0.8660    4.5000    0.0000 C   0  0  0  0  0  0  0  0  0  0  0  0
   -0.3660    5.3660    0.0000 F   0  0  0  0  0  0  0  0  0  0  0  0
   -1.3660    5.3660    0.0000 F   0  0  0  0  0  0  0  0  0  0  0  0
   -0.0000    4.0000    0.0000 F   0  0  0  0  0  0  0  0  0  0  0  0
   -1.7321    3.0000    0.0000 C   0  0  0  0  0  0  0  0  0  0  0  0
   -0.8660    1.5000    0.0000 N   0  0  0  0  0  0  0  0  0  0  0  0
   -0.0000    1.0000    0.0000 C   0  0  0  0  0  0  0  0  0  0  0  0
    0.8660    1.5000    0.0000 C   0  0  0  0  0  0  0  0  0  0  0  0
    0.8660    2.5000    0.0000 C   0  0  0  0  0  0  0  0  0  0  0  0
    1.7321    3.0000    0.0000 C   0  0  0  0  0  0  0  0  0  0  0  0
    2.5981    2.5000    0.0000 C   0  0  0  0  0  0  0  0  0  0  0  0
    2.5981    1.5000    0.0000 C   0  0  0  0  0  0  0  0  0  0  0  0
    3.4641    1.0000    0.0000 C   0  0  0  0  0  0  0  0  0  0  0  0
    4.4641    1.0000    0.0000 F   0  0  0  0  0  0  0  0  0  0  0  0
    3.9641    1.8660    0.0000 F   0  0  0  0  0  0  0  0  0  0  0  0
    3.4641    0.0000    0.0000 F   0  0  0  0  0  0  0  0  0  0  0  0
    1.7321    1.0000    0.0000 N   0  0  0  0  0  0  0  0  0  0  0  0
    0.0000    0.0000    0.0000 N   0  0  0  0  0  0  0  0  0  0  0  0
  1  2  1  0  0  0  0
  2  3  1  0  0  0  0
  2  4  1  0  0  0  0
  2  5  1  0  0  0  0
  5  6  1  0  0  0  0
  6  7  1  0  0  0  0
  7 33  1  0  0  0  0
  7  8  2  0  0  0  0
  8  9  1  0  0  0  0
  9 10  1  0  0  0  0
  9 21  2  0  0  0  0
 10 11  1  0  0  0  0
 11 20  1  0  0  0  0
 11 12  2  0  0  0  0
 12 13  1  0  0  0  0
 13 14  2  0  0  0  0
 14 15  1  0  0  0  0
 15 16  1  0  0  0  0
 15 20  2  0  0  0  0
 16 17  1  0  0  0  0
 16 18  1  0  0  0  0
 16 19  1  0  0  0  0
 21 22  1  0  0  0  0
 22 23  1  0  0  0  0
 22 33  2  0  0  0  0
 23 32  1  0  0  0  0
 23 24  2  0  0  0  0
 24 25  1  0  0  0  0
 25 26  2  0  0  0  0
 26 27  1  0  0  0  0
 27 28  1  0  0  0  0
 27 32  2  0  0  0  0
 28 29  1  0  0  0  0
 28 30  1  0  0  0  0
 28 31  1  0  0  0  0
M  END
$$$$

 OpenBabel10082008492D

 13 14  0  0  1  0  0  0  0  0999 V2000
    2.0108    1.7601    0.0000 C   0  0  0  0  0  0  0  0  0  0  0  0
    2.3198    0.8090    0.0000 N   0  0  0  0  0  0  0  0  0  0  0  0
    3.2709    0.5000    0.0000 C   0  0  0  0  0  0  0  0  0  0  0  0
    3.2709   -0.5000    0.0000 C   0  0  0  0  0  0  0  0  0  0  0  0
    2.3198   -0.8090    0.0000 C   0  0  0  0  0  0  0  0  0  0  0  0
    1.7321   -0.0000    0.0000 C   0  0  1  0  0  0  0  0  0  0  0  0
    0.8660    0.5000    0.0000 H   0  0  0  0  0  0  0  0  0  0  0  0
    0.8660   -0.5000    0.0000 C   0  0  0  0  0  0  0  0  0  0  0  0
    0.8660   -1.5000    0.0000 C   0  0  0  0  0  0  0  0  0  0  0  0
    0.0000   -2.0000    0.0000 C   0  0  0  0  0  0  0  0  0  0  0  0
   -0.8660   -1.5000    0.0000 C   0  0  0  0  0  0  0  0  0  0  0  0
   -0.8660   -0.5000    0.0000 N   0  0  0  0  0  0  0  0  0  0  0  0
    0.0000   -0.0000    0.0000 C   0  0  0  0  0  0  0  0  0  0  0  0
  1  2  1  0  0  0  0
  2  6  1  0  0  0  0
  2  3  1  0  0  0  0
  3  4  1  0  0  0  0
  4  5  1  0  0  0  0
  5  6  1  0  0  0  0
  6  7  1  6  0  0  0
  6  8  1  0  0  0  0
  8 13  1  0  0  0  0
  8  9  2  0  0  0  0
  9 10  1  0  0  0  0
 10 11  2  0  0  0  0
 11 12  1  0  0  0  0
 12 13  2  0  0  0  0
M  END
$$$$

 OpenBabel10082008492D

 21 22  0  0  1  0  0  0  0  0999 V2000
    2.5981   -2.5000    0.0000 C   0  0  0  0  0  0  0  0  0  0  0  0
    2.5981   -1.5000    0.0000 C   0  0  3  0  0  0  0  0  0  0  0  0
    3.4641   -1.0000    0.0000 C   0  0  0  0  0  0  0  0  0  0  0  0
    3.4641   -0.0000    0.0000 O   0  0  0  0  0  0  0  0  0  0  0  0
    4.3301    0.5000    0.0000 C   0  0  0  0  0  0  0  0  0  0  0  0
    4.3301    1.5000    0.0000 C   0  0  0  0  0  0  0  0  0  0  0  0
    5.1962    2.0000    0.0000 C   0  0  0  0  0  0  0  0  0  0  0  0
    6.0622    1.5000    0.0000 C   0  0  0  0  0  0  0  0  0  0  0  0
    6.0622    0.5000    0.0000 C   0  0  0  0  0  0  0  0  0  0  0  0
    5.1962   -0.0000    0.0000 C   0  0  0  0  0  0  0  0  0  0  0  0
    1.7321   -1.0000    0.0000 N   0  0  0  0  0  0  0  0  0  0  0  0
    1.7321   -0.0000    0.0000 C   0  0  0  0  0  0  0  0  0  0  0  0
    0.8660    0.5000    0.0000 C   0  0  0  0  0  0  0  0  0  0  0  0
    0.8660    1.5000    0.0000 Cl  0  0  0  0  0  0  0  0  0  0  0  0
    0.8660   -1.5000    0.0000 C   0  0  0  0  0  0  0  0  0  0  0  0
   -0.0000   -1.0000    0.0000 C   0  0  0  0  0  0  0  0  0  0  0  0
   -0.8660   -1.5000    0.0000 C   0  0  0  0  0  0  0  0  0  0  0  0
   -1.7321   -1.0000    0.0000 C   0  0  0  0  0  0  0  0  0  0  0  0
   -1.7321   -0.0000    0.0000 C   0  0  0  0  0  0  0  0  0  0  0  0
   -0.8660    0.5000    0.0000 C   0  0  0  0  0  0  0  0  0  0  0  0
    0.0000    0.0000    0.0000 C   0  0  0  0  0  0  0  0  0  0  0  0
  1  2  1  0  0  0  0
  2  3  1  0  0  0  0
  2 11  1  0  0  0  0
  3  4  1  0  0  0  0
  4  5  1  0  0  0  0
  5 10  1  0  0  0  0
  5  6  2  0  0  0  0
  6  7  1  0  0  0  0
  7  8  2  0  0  0  0
  8  9  1  0  0  0  0
  9 10  2  0  0  0  0
 11 12  1  0  0  0  0
 11 15  1  0  0  0  0
 12 13  1  0  0  0  0
 13 14  1  0  0  0  0
 15 16  1  0  0  0  0
 16 21  1  0  0  0  0
 16 17  2  0  0  0  0
 17 18  1  0  0  0  0
 18 19  2  0  0  0  0
 19 20  1  0  0  0  0
 20 21  2  0  0  0  0
M  END
$$$$

 OpenBabel10082008492D

 19 19  0  0  1  0  0  0  0  0999 V2000
    6.0622   -1.5000    0.0000 C   0  0  0  0  0  0  0  0  0  0  0  0
    6.0622   -0.5000    0.0000 C   0  0  0  0  0  0  0  0  0  0  0  0
    6.9282   -0.0000    0.0000 C   0  0  0  0  0  0  0  0  0  0  0  0
    5.1962   -0.0000    0.0000 N   0  0  0  0  0  0  0  0  0  0  0  0
    4.3301   -0.5000    0.0000 C   0  0  0  0  0  0  0  0  0  0  0  0
    3.4641   -0.0000    0.0000 C   0  0  3  0  0  0  0  0  0  0  0  0
    3.4641    1.0000    0.0000 O   0  0  0  0  0  0  0  0  0  0  0  0
    2.5981   -0.5000    0.0000 C   0  0  0  0  0  0  0  0  0  0  0  0
    1.7321   -0.0000    0.0000 O   0  0  0  0  0  0  0  0  0  0  0  0
    0.8660   -0.5000    0.0000 C   0  0  0  0  0  0  0  0  0  0  0  0
    0.8660   -1.5000    0.0000 C   0  0  0  0  0  0  0  0  0  0  0  0
   -0.0000   -2.0000    0.0000 C   0  0  0  0  0  0  0  0  0  0  0  0
   -0.8660   -1.5000    0.0000 C   0  0  0  0  0  0  0  0  0  0  0  0
   -1.7321   -2.0000    0.0000 C   0  0  0  0  0  0  0  0  0  0  0  0
   -2.5981   -1.5000    0.0000 C   0  0  0  0  0  0  0  0  0  0  0  0
   -2.5981   -0.5000    0.0000 N   0  0  0  0  0  0  0  0  0  0  0  0
   -3.4641   -2.0000    0.0000 O   0  0  0  0  0  0  0  0  0  0  0  0
   -0.8660   -0.5000    0.0000 C   0  0  0  0  0  0  0  0  0  0  0  0
    0.0000    0.0000    0.0000 C   0  0  0  0  0  0  0  0  0  0  0  0
  1  2  1  0  0  0  0
  2  3  1  0  0  0  0
  2  4  1  0  0  0  0
  4  5  1  0  0  0  0
  5  6  1  0  0  0  0
  6  7  1  0  0  0  0
  6  8  1  0  0  0  0
  8  9  1  0  0  0  0
  9 10  1  0  0  0  0
 10 19  1  0  0  0  0
 10 11  2  0  0  0  0
 11 12  1  0  0  0  0
 12 13  2  0  0  0  0
 13 14  1  0  0  0  0
 13 18  1  0  0  0  0
 14 15  1  0  0  0  0
 15 16  1  0  0  0  0
 15 17  2  0  0  0  0
 18 19  2  0  0  0  0
M  END
$$$$

 OpenBabel10082008492D

 42 45  0  0  1  0  0  0  0  0999 V2000
   -1.7321   -4.0000    0.0000 C   0  0  0  0  0  0  0  0  0  0  0  0
   -1.7321   -3.0000    0.0000 C   0  0  0  0  0  0  0  0  0  0  0  0
   -0.8660   -2.5000    0.0000 O   0  0  0  0  0  0  0  0  0  0  0  0
   -0.0000   -3.0000    0.0000 C   0  0  0  0  0  0  0  0  0  0  0  0
   -0.0000   -4.0000    0.0000 O   0  0  0  0  0  0  0  0  0  0  0  0
    0.8660   -2.5000    0.0000 C   0  0  1  0  0  0  0  0  0  0  0  0
    1.3660   -3.3660    0.0000 H   0  0  0  0  0  0  0  0  0  0  0  0
    1.8660   -2.5000    0.0000 N   0  0  0  0  0  0  0  0  0  0  0  0
    0.8660   -1.5000    0.0000 C   0  0  0  0  0  0  0  0  0  0  0  0
   -0.0000   -1.0000    0.0000 C   0  0  0  0  0  0  0  0  0  0  0  0
   -0.8660   -1.5000    0.0000 C   0  0  0  0  0  0  0  0  0  0  0  0
   -1.7321   -1.0000    0.0000 C   0  0  0  0  0  0  0  0  0  0  0  0
   -1.7321    0.0000    0.0000 C   0  0  0  0  0  0  0  0  0  0  0  0
   -2.5981    0.5000    0.0000 C   0  0  0  0  0  0  0  0  0  0  0  0
   -3.4641    0.0000    0.0000 C   0  0  0  0  0  0  0  0  0  0  0  0
   -4.3301    0.5000    0.0000 C   0  0  0  0  0  0  0  0  0  0  0  0
   -5.1962    0.0000    0.0000 O   0  0  0  0  0  0  0  0  0  0  0  0
   -6.0622    0.5000    0.0000 C   0  0  2  0  0  0  0  0  0  0  0  0
   -5.5622    1.3660    0.0000 H   0  0  0  0  0  0  0  0  0  0  0  0
   -6.5622   -0.3660    0.0000 C   0  0  0  0  0  0  0  0  0  0  0  0
   -7.5622   -0.3660    0.0000 C   0  0  0  0  0  0  0  0  0  0  0  0
   -8.0622   -1.2321    0.0000 C   0  0  0  0  0  0  0  0  0  0  0  0
   -7.5622   -2.0981    0.0000 C   0  0  0  0  0  0  0  0  0  0  0  0
   -8.0622   -2.9641    0.0000 Cl  0  0  0  0  0  0  0  0  0  0  0  0
   -6.5622   -2.0981    0.0000 C   0  0  0  0  0  0  0  0  0  0  0  0
   -6.0622   -1.2321    0.0000 C   0  0  0  0  0  0  0  0  0  0  0  0
   -5.0622   -1.2321    0.0000 N   0  0  0  0  0  0  0  0  0  0  0  0
   -4.4744   -2.0411    0.0000 C   0  0  0  0  0  0  0  0  0  0  0  0
   -3.5233   -1.7321    0.0000 C   0  0  0  0  0  0  0  0  0  0  0  0
   -3.5233   -0.7321    0.0000 C   0  0  0  0  0  0  0  0  0  0  0  0
   -2.7143   -0.1443    0.0000 C   0  0  0  0  0  0  0  0  0  0  0  0
   -4.4744   -0.4230    0.0000 N   0  0  0  0  0  0  0  0  0  0  0  0
   -6.9282    1.0000    0.0000 C   0  0  0  0  0  0  0  0  0  0  0  0
   -7.9282    1.0000    0.0000 F   0  0  0  0  0  0  0  0  0  0  0  0
   -7.4282    0.1340    0.0000 F   0  0  0  0  0  0  0  0  0  0  0  0
   -6.9282    2.0000    0.0000 F   0  0  0  0  0  0  0  0  0  0  0  0
   -4.3301    1.5000    0.0000 N   0  0  0  0  0  0  0  0  0  0  0  0
   -3.4641    2.0000    0.0000 C   0  0  0  0  0  0  0  0  0  0  0  0
   -3.4641    3.0000    0.0000 N   0  0  0  0  0  0  0  0  0  0  0  0
   -2.5981    1.5000    0.0000 N   0  0  0  0  0  0  0  0  0  0  0  0
   -0.8660    0.5000    0.0000 C   0  0  0  0  0  0  0  0  0  0  0  0
    0.0000    0.0000    0.0000 C   0  0  0  0  0  0  0  0  0  0  0  0
  1  2  1  0  0  0  0
  2  3  1  0  0  0  0
  3  4  1  0  0  0  0
  4  5  2  0  0  0  0
  4  6  1  0  0  0  0
  6  7  1  1  0  0  0
  6  8  1  0  0  0  0
  6  9  1  0  0  0  0
  9 10  1  0  0  0  0
 10 42  1  0  0  0  0
 10 11  2  0  0  0  0
 11 12  1  0  0  0  0
 12 13  2  0  0  0  0
 13 14  1  0  0  0  0
 13 41  1  0  0  0  0
 14 40  1  0  0  0  0
 14 15  2  0  0  0  0
 15 16  1  0  0  0  0
 16 17  1  0  0  0  0
 16 37  2  0  0  0  0
 17 18  1  0  0  0  0
 18 19  1  1  0  0  0
 18 20  1  0  0  0  0
 18 33  1  0  0  0  0
 20 26  1  0  0  0  0
 20 21  2  0  0  0  0
 21 22  1  0  0  0  0
 22 23  2  0  0  0  0
 23 24  1  0  0  0  0
 23 25  1  0  0  0  0
 25 26  2  0  0  0  0
 26 27  1  0  0  0  0
 27 32  1  0  0  0  0
 27 28  1  0  0  0  0
 28 29  2  0  0  0  0
 29 30  1  0  0  0  0
 30 31  1  0  0  0  0
 30 32  2  0  0  0  0
 33 34  1  0  0  0  0
 33 35  1  0  0  0  0
 33 36  1  0  0  0  0
 37 38  1  0  0  0  0
 38 39  1  0  0  0  0
 38 40  2  0  0  0  0
 41 42  2  0  0  0  0
M  END
$$$$

 OpenBabel10082008492D

 26 28  0  0  0  0  0  0  0  0999 V2000
   -0.8660    2.5000    0.0000 O   0  0  0  0  0  0  0  0  0  0  0  0
   -0.8660    1.5000    0.0000 C   0  0  0  0  0  0  0  0  0  0  0  0
   -1.7321    1.0000    0.0000 N   0  0  0  0  0  0  0  0  0  0  0  0
   -2.5981    1.5000    0.0000 C   0  0  0  0  0  0  0  0  0  0  0  0
   -3.4641    1.0000    0.0000 C   0  0  0  0  0  0  0  0  0  0  0  0
   -3.4641   -0.0000    0.0000 Cl  0  0  0  0  0  0  0  0  0  0  0  0
   -4.3301    1.5000    0.0000 C   0  0  0  0  0  0  0  0  0  0  0  0
   -4.3301    2.5000    0.0000 N   0  0  0  0  0  0  0  0  0  0  0  0
   -3.4641    3.0000    0.0000 C   0  0  0  0  0  0  0  0  0  0  0  0
   -2.5981    2.5000    0.0000 C   0  0  0  0  0  0  0  0  0  0  0  0
   -1.7321    3.0000    0.0000 Cl  0  0  0  0  0  0  0  0  0  0  0  0
   -0.0000    1.0000    0.0000 C   0  0  0  0  0  0  0  0  0  0  0  0
    0.8660    1.5000    0.0000 C   0  0  0  0  0  0  0  0  0  0  0  0
    1.7321    1.0000    0.0000 C   0  0  0  0  0  0  0  0  0  0  0  0
    1.7321    0.0000    0.0000 C   0  0  0  0  0  0  0  0  0  0  0  0
    2.5981   -0.5000    0.0000 O   0  0  0  0  0  0  0  0  0  0  0  0
    3.4641    0.0000    0.0000 C   0  0  0  0  0  0  0  0  0  0  0  0
    4.3301   -0.5000    0.0000 F   0  0  0  0  0  0  0  0  0  0  0  0
    3.4641    1.0000    0.0000 F   0  0  0  0  0  0  0  0  0  0  0  0
    0.8660   -0.5000    0.0000 C   0  0  0  0  0  0  0  0  0  0  0  0
    0.8660   -1.5000    0.0000 O   0  0  0  0  0  0  0  0  0  0  0  0
    0.0000   -2.0000    0.0000 C   0  0  0  0  0  0  0  0  0  0  0  0
   -0.8660   -1.5000    0.0000 C   0  0  0  0  0  0  0  0  0  0  0  0
   -1.8660   -1.5000    0.0000 C   0  0  0  0  0  0  0  0  0  0  0  0
   -1.3660   -0.6340    0.0000 C   0  0  0  0  0  0  0  0  0  0  0  0
    0.0000    0.0000    0.0000 C   0  0  0  0  0  0  0  0  0  0  0  0
  1  2  2  0  0  0  0
  2  3  1  0  0  0  0
  2 12  1  0  0  0  0
  3  4  1  0  0  0  0
  4 10  1  0  0  0  0
  4  5  2  0  0  0  0
  5  6  1  0  0  0  0
  5  7  1  0  0  0  0
  7  8  2  0  0  0  0
  8  9  1  0  0  0  0
  9 10  2  0  0  0  0
 10 11  1  0  0  0  0
 12 26  1  0  0  0  0
 12 13  2  0  0  0  0
 13 14  1  0  0  0  0
 14 15  2  0  0  0  0
 15 16  1  0  0  0  0
 15 20  1  0  0  0  0
 16 17  1  0  0  0  0
 17 18  1  0  0  0  0
 17 19  1  0  0  0  0
 20 21  1  0  0  0  0
 20 26  2  0  0  0  0
 21 22  1  0  0  0  0
 22 23  1  0  0  0  0
 23 25  1  0  0  0  0
 23 24  1  0  0  0  0
 24 25  1  0  0  0  0
M  END
$$$$

 OpenBabel10082008492D

 13 14  0  0  0  0  0  0  0  0999 V2000
    0.8660   -1.5000    0.0000 N   0  0  0  0  0  0  0  0  0  0  0  0
    0.0000   -1.0000    0.0000 C   0  0  0  0  0  0  0  0  0  0  0  0
   -0.8660   -1.5000    0.0000 N   0  0  0  0  0  0  0  0  0  0  0  0
   -1.7321   -1.0000    0.0000 C   0  0  0  0  0  0  0  0  0  0  0  0
   -2.6831   -1.3090    0.0000 N   0  0  0  0  0  0  0  0  0  0  0  0
   -2.9921   -2.2601    0.0000 H   0  0  0  0  0  0  0  0  0  0  0  0
   -3.2709   -0.5000    0.0000 C   0  0  0  0  0  0  0  0  0  0  0  0
   -2.6831    0.3090    0.0000 N   0  0  0  0  0  0  0  0  0  0  0  0
   -1.7321    0.0000    0.0000 C   0  0  0  0  0  0  0  0  0  0  0  0
   -0.8660    0.5000    0.0000 C   0  0  0  0  0  0  0  0  0  0  0  0
   -0.8660    1.5000    0.0000 S   0  0  0  0  0  0  0  0  0  0  0  0
   -0.0000   -0.0000    0.0000 N   0  0  0  0  0  0  0  0  0  0  0  0
    0.8660    0.5000    0.0000 H   0  0  0  0  0  0  0  0  0  0  0  0
  1  2  1  0  0  0  0
  2 12  1  0  0  0  0
  2  3  2  0  0  0  0
  3  4  1  0  0  0  0
  4  9  2  0  0  0  0
  4  5  1  0  0  0  0
  5  6  1  0  0  0  0
  5  7  1  0  0  0  0
  7  8  2  0  0  0  0
  8  9  1  0  0  0  0
  9 10  1  0  0  0  0
 10 11  2  0  0  0  0
 10 12  1  0  0  0  0
 12 13  1  0  0  0  0
M  END
$$$$

 OpenBabel10082008492D

  5  4  0  0  0  0  0  0  0  0999 V2000
    1.7321   -1.0000    0.0000 N   0  0  0  0  0  0  0  0  0  0  0  0
    1.7321   -0.0000    0.0000 C   0  0  0  0  0  0  0  0  0  0  0  0
    2.5981    0.5000    0.0000 O   0  0  0  0  0  0  0  0  0  0  0  0
    0.8660    0.5000    0.0000 N   0  0  0  0  0  0  0  0  0  0  0  0
    0.0000    0.0000    0.0000 O   0  0  0  0  0  0  0  0  0  0  0  0
  1  2  1  0  0  0  0
  2  3  2  0  0  0  0
  2  4  1  0  0  0  0
  4  5  1  0  0  0  0
M  END
$$$$

 OpenBabel10082008492D

 22 24  0  0  1  0  0  0  0  0999 V2000
   -1.6730    1.4483    0.0000 C   0  0  0  0  0  0  0  0  0  0  0  0
   -0.9659    0.7412    0.0000 N   0  0  0  0  0  0  0  0  0  0  0  0
    0.0000    1.0000    0.0000 C   0  0  1  0  0  0  0  0  0  0  0  0
    0.1305    1.9914    0.0000 H   0  0  0  0  0  0  0  0  0  0  0  0
    0.8660    1.5000    0.0000 C   0  0  0  0  0  0  0  0  0  0  0  0
    1.7321    1.0000    0.0000 C   0  0  0  0  0  0  0  0  0  0  0  0
    1.7321   -0.0000    0.0000 C   0  0  1  0  0  0  0  0  0  0  0  0
    2.2321   -0.8660    0.0000 H   0  0  0  0  0  0  0  0  0  0  0  0
    2.7321   -0.0000    0.0000 C   0  0  0  0  0  0  0  0  0  0  0  0
    3.2321    0.8660    0.0000 C   0  0  0  0  0  0  0  0  0  0  0  0
    4.2321    0.8660    0.0000 C   0  0  0  0  0  0  0  0  0  0  0  0
    4.7321   -0.0000    0.0000 C   0  0  0  0  0  0  0  0  0  0  0  0
    5.7321   -0.0000    0.0000 Cl  0  0  0  0  0  0  0  0  0  0  0  0
    4.2321   -0.8660    0.0000 C   0  0  0  0  0  0  0  0  0  0  0  0
    4.7321   -1.7321    0.0000 Cl  0  0  0  0  0  0  0  0  0  0  0  0
    3.2321   -0.8660    0.0000 C   0  0  0  0  0  0  0  0  0  0  0  0
    0.8660   -0.5000    0.0000 C   0  0  0  0  0  0  0  0  0  0  0  0
    0.8660   -1.5000    0.0000 C   0  0  0  0  0  0  0  0  0  0  0  0
   -0.0000   -2.0000    0.0000 C   0  0  0  0  0  0  0  0  0  0  0  0
   -0.8660   -1.5000    0.0000 C   0  0  0  0  0  0  0  0  0  0  0  0
   -0.8660   -0.5000    0.0000 C   0  0  0  0  0  0  0  0  0  0  0  0
    0.0000   -0.0000    0.0000 C   0  0  0  0  0  0  0  0  0  0  0  0
  1  2  1  0  0  0  0
  2  3  1  0  0  0  0
  3  4  1  6  0  0  0
  3 22  1  0  0  0  0
  3  5  1  0  0  0  0
  5  6  1  0  0  0  0
  6  7  1  0  0  0  0
  7  8  1  6  0  0  0
  7  9  1  0  0  0  0
  7 17  1  0  0  0  0
  9 16  1  0  0  0  0
  9 10  2  0  0  0  0
 10 11  1  0  0  0  0
 11 12  2  0  0  0  0
 12 13  1  0  0  0  0
 12 14  1  0  0  0  0
 14 15  1  0  0  0  0
 14 16  2  0  0  0  0
 17 22  1  0  0  0  0
 17 18  2  0  0  0  0
 18 19  1  0  0  0  0
 19 20  2  0  0  0  0
 20 21  1  0  0  0  0
 21 22  2  0  0  0  0
M  END
$$$$

 OpenBabel10082008492D

 41 44  0  0  0  0  0  0  0  0999 V2000
    0.5000   -6.8660    0.0000 C   0  0  0  0  0  0  0  0  0  0  0  0
    1.3660   -7.3660    0.0000 C   0  0  0  0  0  0  0  0  0  0  0  0
    1.3660   -8.3660    0.0000 O   0  0  0  0  0  0  0  0  0  0  0  0
    2.2321   -6.8660    0.0000 N   0  0  0  0  0  0  0  0  0  0  0  0
    2.2321   -5.8660    0.0000 C   0  0  0  0  0  0  0  0  0  0  0  0
    1.3660   -5.3660    0.0000 C   0  0  0  0  0  0  0  0  0  0  0  0
    1.3660   -4.3660    0.0000 C   0  0  0  0  0  0  0  0  0  0  0  0
    2.2321   -3.8660    0.0000 C   0  0  0  0  0  0  0  0  0  0  0  0
    3.0981   -4.3660    0.0000 C   0  0  0  0  0  0  0  0  0  0  0  0
    3.9641   -3.8660    0.0000 N   0  0  0  0  0  0  0  0  0  0  0  0
    3.9641   -2.8660    0.0000 C   0  0  0  0  0  0  0  0  0  0  0  0
    3.0981   -2.3660    0.0000 O   0  0  0  0  0  0  0  0  0  0  0  0
    4.8301   -2.3660    0.0000 N   0  0  0  0  0  0  0  0  0  0  0  0
    4.8301   -1.3660    0.0000 C   0  0  0  0  0  0  0  0  0  0  0  0
    4.3301   -0.5000    0.0000 C   0  0  0  0  0  0  0  0  0  0  0  0
    5.3301   -0.5000    0.0000 C   0  0  0  0  0  0  0  0  0  0  0  0
    5.6962   -2.8660    0.0000 C   0  0  0  0  0  0  0  0  0  0  0  0
    6.5622   -2.3660    0.0000 O   0  0  0  0  0  0  0  0  0  0  0  0
    5.6962   -3.8660    0.0000 C   0  0  0  0  0  0  0  0  0  0  0  0
    6.5622   -4.3660    0.0000 C   0  0  0  0  0  0  0  0  0  0  0  0
    7.4282   -3.8660    0.0000 N   0  0  0  0  0  0  0  0  0  0  0  0
    8.2942   -4.3660    0.0000 C   0  0  0  0  0  0  0  0  0  0  0  0
    8.2942   -5.3660    0.0000 C   0  0  0  0  0  0  0  0  0  0  0  0
    9.1603   -5.8660    0.0000 C   0  0  0  0  0  0  0  0  0  0  0  0
   10.0263   -5.3660    0.0000 C   0  0  0  0  0  0  0  0  0  0  0  0
   10.8923   -5.8660    0.0000 I   0  0  0  0  0  0  0  0  0  0  0  0
   10.0263   -4.3660    0.0000 C   0  0  0  0  0  0  0  0  0  0  0  0
    9.1603   -3.8660    0.0000 C   0  0  0  0  0  0  0  0  0  0  0  0
    9.1603   -2.8660    0.0000 F   0  0  0  0  0  0  0  0  0  0  0  0
    6.5622   -5.3660    0.0000 N   0  0  0  0  0  0  0  0  0  0  0  0
    7.4282   -5.8660    0.0000 C   0  0  0  0  0  0  0  0  0  0  0  0
    5.6962   -5.8660    0.0000 C   0  0  0  0  0  0  0  0  0  0  0  0
    5.6962   -6.8660    0.0000 O   0  0  0  0  0  0  0  0  0  0  0  0
    4.8301   -5.3660    0.0000 C   0  0  0  0  0  0  0  0  0  0  0  0
    3.9641   -5.8660    0.0000 C   0  0  0  0  0  0  0  0  0  0  0  0
    4.8301   -4.3660    0.0000 C   0  0  0  0  0  0  0  0  0  0  0  0
    3.0981   -5.3660    0.0000 C   0  0  0  0  0  0  0  0  0  0  0  0
   13.6244   -2.0000    0.0000 C   0  0  0  0  0  0  0  0  0  0  0  0
   12.7583   -1.5000    0.0000 S   0  3  0  0  0  0  0  0  0  0  0  0
   12.7583   -0.5000    0.0000 C   0  0  0  0  0  0  0  0  0  0  0  0
   11.8923   -2.0000    0.0000 O   0  5  0  0  0  0  0  0  0  0  0  0
  1  2  1  0  0  0  0
  2  3  2  0  0  0  0
  2  4  1  0  0  0  0
  4  5  1  0  0  0  0
  5 37  1  0  0  0  0
  5  6  2  0  0  0  0
  6  7  1  0  0  0  0
  7  8  2  0  0  0  0
  8  9  1  0  0  0  0
  9 10  1  0  0  0  0
  9 37  2  0  0  0  0
 10 36  1  0  0  0  0
 10 11  1  0  0  0  0
 11 12  2  0  0  0  0
 11 13  1  0  0  0  0
 13 14  1  0  0  0  0
 13 17  1  0  0  0  0
 14 16  1  0  0  0  0
 14 15  1  0  0  0  0
 15 16  1  0  0  0  0
 17 18  2  0  0  0  0
 17 19  1  0  0  0  0
 19 36  1  0  0  0  0
 19 20  2  0  0  0  0
 20 21  1  0  0  0  0
 20 30  1  0  0  0  0
 21 22  1  0  0  0  0
 22 28  1  0  0  0  0
 22 23  2  0  0  0  0
 23 24  1  0  0  0  0
 24 25  2  0  0  0  0
 25 26  1  0  0  0  0
 25 27  1  0  0  0  0
 27 28  2  0  0  0  0
 28 29  1  0  0  0  0
 30 31  1  0  0  0  0
 30 32  1  0  0  0  0
 32 33  2  0  0  0  0
 32 34  1  0  0  0  0
 34 35  1  0  0  0  0
 34 36  2  0  0  0  0
 38 39  1  0  0  0  0
 39 40  1  0  0  0  0
 39 41  1  0  0  0  0
M  CHG  2  39   1  41  -1
M  END
$$$$

 OpenBabel10082008492D

  4  3  0  0  0  0  0  0  0  0999 V2000
    2.0000    0.0000    0.0000 N   0  0  0  0  0  0  0  0  0  0  0  0
    1.5000    0.8660    0.0000 C   0  0  0  0  0  0  0  0  0  0  0  0
    0.5000    0.8660    0.0000 C   0  0  0  0  0  0  0  0  0  0  0  0
   -0.0000   -0.0000    0.0000 S   0  0  0  0  0  0  0  0  0  0  0  0
  1  2  1  0  0  0  0
  2  3  1  0  0  0  0
  3  4  1  0  0  0  0
M  END
$$$$

 OpenBabel10082008492D

 17 17  0  0  0  0  0  0  0  0999 V2000
   -0.8660   -1.5000    0.0000 O   0  0  0  0  0  0  0  0  0  0  0  0
   -0.8660   -0.5000    0.0000 C   0  0  0  0  0  0  0  0  0  0  0  0
   -1.7321   -0.0000    0.0000 N   0  0  0  0  0  0  0  0  0  0  0  0
   -2.5981   -0.5000    0.0000 H   0  0  0  0  0  0  0  0  0  0  0  0
   -1.7321    1.0000    0.0000 C   0  0  0  0  0  0  0  0  0  0  0  0
   -0.8660    1.5000    0.0000 C   0  0  0  0  0  0  0  0  0  0  0  0
   -0.8660    2.5000    0.0000 N   0  0  0  0  0  0  0  0  0  0  0  0
   -0.0000    3.0000    0.0000 C   0  0  0  0  0  0  0  0  0  0  0  0
    0.8660    2.5000    0.0000 C   0  0  0  0  0  0  0  0  0  0  0  0
    1.7321    3.0000    0.0000 Cl  0  0  0  0  0  0  0  0  0  0  0  0
   -1.7321    3.0000    0.0000 C   0  0  0  0  0  0  0  0  0  0  0  0
   -1.7321    4.0000    0.0000 C   0  0  0  0  0  0  0  0  0  0  0  0
   -0.8660    4.5000    0.0000 Cl  0  0  0  0  0  0  0  0  0  0  0  0
   -0.0000    1.0000    0.0000 C   0  0  0  0  0  0  0  0  0  0  0  0
    0.8660    1.5000    0.0000 O   0  0  0  0  0  0  0  0  0  0  0  0
    0.0000    0.0000    0.0000 N   0  0  0  0  0  0  0  0  0  0  0  0
    0.8660   -0.5000    0.0000 H   0  0  0  0  0  0  0  0  0  0  0  0
  1  2  2  0  0  0  0
  2 16  1  0  0  0  0
  2  3  1  0  0  0  0
  3  4  1  0  0  0  0
  3  5  1  0  0  0  0
  5  6  2  0  0  0  0
  6  7  1  0  0  0  0
  6 14  1  0  0  0  0
  7  8  1  0  0  0  0
  7 11  1  0  0  0  0
  8  9  1  0  0  0  0
  9 10  1  0  0  0  0
 11 12  1  0  0  0  0
 12 13  1  0  0  0  0
 14 15  2  0  0  0  0
 14 16  1  0  0  0  0
 16 17  1  0  0  0  0
M  END
$$$$

 OpenBabel10082008492D

 14 14  0  0  1  0  0  0  0  0999 V2000
   -0.8660   -1.5000    0.0000 C   0  0  0  0  0  0  0  0  0  0  0  0
   -0.8660   -0.5000    0.0000 C   0  0  0  0  0  0  0  0  0  0  0  0
   -1.7321   -0.0000    0.0000 C   0  0  0  0  0  0  0  0  0  0  0  0
   -1.7321    1.0000    0.0000 C   0  0  0  0  0  0  0  0  0  0  0  0
   -0.8660    1.5000    0.0000 C   0  0  0  0  0  0  0  0  0  0  0  0
   -0.0000    1.0000    0.0000 C   0  0  0  0  0  0  0  0  0  0  0  0
    0.8660    1.5000    0.0000 C   0  0  0  0  0  0  0  0  0  0  0  0
    0.0000    0.0000    0.0000 C   0  0  0  0  0  0  0  0  0  0  0  0
    0.8660   -0.5000    0.0000 N   0  0  0  0  0  0  0  0  0  0  0  0
    0.8660   -1.5000    0.0000 C   0  0  0  0  0  0  0  0  0  0  0  0
    0.0000   -2.0000    0.0000 O   0  0  0  0  0  0  0  0  0  0  0  0
    1.7321   -2.0000    0.0000 C   0  0  3  0  0  0  0  0  0  0  0  0
    1.7321   -3.0000    0.0000 C   0  0  0  0  0  0  0  0  0  0  0  0
    2.5981   -1.5000    0.0000 N   0  0  0  0  0  0  0  0  0  0  0  0
  1  2  1  0  0  0  0
  2  8  1  0  0  0  0
  2  3  2  0  0  0  0
  3  4  1  0  0  0  0
  4  5  2  0  0  0  0
  5  6  1  0  0  0  0
  6  7  1  0  0  0  0
  6  8  2  0  0  0  0
  8  9  1  0  0  0  0
  9 10  1  0  0  0  0
 10 11  2  0  0  0  0
 10 12  1  0  0  0  0
 12 13  1  0  0  0  0
 12 14  1  0  0  0  0
M  END
$$$$

 OpenBabel10082008492D

 11 10  0  0  0  0  0  0  0  0999 V2000
   -4.5000   -1.8660    0.0000 C   0  0  0  0  0  0  0  0  0  0  0  0
   -4.0000   -2.7321    0.0000 C   0  0  0  0  0  0  0  0  0  0  0  0
   -4.5000   -3.5981    0.0000 O   0  0  0  0  0  0  0  0  0  0  0  0
   -3.0000   -2.7321    0.0000 N   0  0  0  0  0  0  0  0  0  0  0  0
   -2.5000   -1.8660    0.0000 C   0  0  0  0  0  0  0  0  0  0  0  0
   -1.5000   -1.8660    0.0000 C   0  0  0  0  0  0  0  0  0  0  0  0
   -1.0000   -1.0000    0.0000 C   0  0  0  0  0  0  0  0  0  0  0  0
   -0.0000   -1.0000    0.0000 S   0  0  0  0  0  0  0  0  0  0  0  0
   -0.0000   -2.0000    0.0000 O   0  0  0  0  0  0  0  0  0  0  0  0
    1.0000   -1.0000    0.0000 O   0  0  0  0  0  0  0  0  0  0  0  0
    0.0000   -0.0000    0.0000 O   0  0  0  0  0  0  0  0  0  0  0  0
  1  2  1  0  0  0  0
  2  3  2  0  0  0  0
  2  4  1  0  0  0  0
  4  5  1  0  0  0  0
  5  6  1  0  0  0  0
  6  7  1  0  0  0  0
  7  8  1  0  0  0  0
  8  9  2  0  0  0  0
  8 10  2  0  0  0  0
  8 11  1  0  0  0  0
M  END
$$$$

 OpenBabel10082008492D

 30 32  0  0  0  0  0  0  0  0999 V2000
   -0.4612   -1.7213    0.0000 C   0  0  0  0  0  0  0  0  0  0  0  0
   -0.6691   -0.7431    0.0000 N   0  0  0  0  0  0  0  0  0  0  0  0
   -1.5827   -0.3364    0.0000 C   0  0  0  0  0  0  0  0  0  0  0  0
   -2.4487   -0.8364    0.0000 C   0  0  0  0  0  0  0  0  0  0  0  0
   -2.4487   -1.8364    0.0000 N   0  0  0  0  0  0  0  0  0  0  0  0
   -1.5827   -2.3364    0.0000 C   0  0  0  0  0  0  0  0  0  0  0  0
   -1.5827   -3.3364    0.0000 C   0  0  0  0  0  0  0  0  0  0  0  0
   -2.4487   -3.8364    0.0000 C   0  0  0  0  0  0  0  0  0  0  0  0
   -2.4487   -4.8364    0.0000 C   0  0  0  0  0  0  0  0  0  0  0  0
   -1.9487   -5.7024    0.0000 F   0  0  0  0  0  0  0  0  0  0  0  0
   -1.4487   -4.8364    0.0000 F   0  0  0  0  0  0  0  0  0  0  0  0
   -3.3147   -5.3364    0.0000 F   0  0  0  0  0  0  0  0  0  0  0  0
   -3.3147   -3.3364    0.0000 C   0  0  0  0  0  0  0  0  0  0  0  0
   -4.1808   -3.8364    0.0000 O   0  0  0  0  0  0  0  0  0  0  0  0
   -5.0468   -3.3364    0.0000 C   0  0  0  0  0  0  0  0  0  0  0  0
   -5.9128   -3.8364    0.0000 C   0  0  0  0  0  0  0  0  0  0  0  0
   -6.7788   -3.3364    0.0000 C   0  0  0  0  0  0  0  0  0  0  0  0
   -7.6449   -3.8364    0.0000 Cl  0  0  0  0  0  0  0  0  0  0  0  0
   -6.7788   -2.3364    0.0000 C   0  0  0  0  0  0  0  0  0  0  0  0
   -5.9128   -1.8364    0.0000 C   0  0  0  0  0  0  0  0  0  0  0  0
   -5.9128   -0.8364    0.0000 C   0  0  0  0  0  0  0  0  0  0  0  0
   -5.9128    0.1636    0.0000 N   0  0  0  0  0  0  0  0  0  0  0  0
   -5.0468   -2.3364    0.0000 C   0  0  0  0  0  0  0  0  0  0  0  0
   -3.3147   -2.3364    0.0000 C   0  0  0  0  0  0  0  0  0  0  0  0
   -4.1808   -1.8364    0.0000 O   0  0  0  0  0  0  0  0  0  0  0  0
   -1.4781    0.6581    0.0000 N   0  0  0  0  0  0  0  0  0  0  0  0
   -0.5000    0.8660    0.0000 N   0  0  0  0  0  0  0  0  0  0  0  0
   -0.0933    1.7796    0.0000 H   0  0  0  0  0  0  0  0  0  0  0  0
   -0.0000   -0.0000    0.0000 C   0  0  0  0  0  0  0  0  0  0  0  0
    0.9945   -0.1045    0.0000 O   0  0  0  0  0  0  0  0  0  0  0  0
  1  2  1  0  0  0  0
  2 29  1  0  0  0  0
  2  3  1  0  0  0  0
  3  4  1  0  0  0  0
  3 26  2  0  0  0  0
  4  5  1  0  0  0  0
  5 24  1  0  0  0  0
  5  6  1  0  0  0  0
  6  7  2  0  0  0  0
  7  8  1  0  0  0  0
  8  9  1  0  0  0  0
  8 13  2  0  0  0  0
  9 10  1  0  0  0  0
  9 11  1  0  0  0  0
  9 12  1  0  0  0  0
 13 14  1  0  0  0  0
 13 24  1  0  0  0  0
 14 15  1  0  0  0  0
 15 23  1  0  0  0  0
 15 16  2  0  0  0  0
 16 17  1  0  0  0  0
 17 18  1  0  0  0  0
 17 19  2  0  0  0  0
 19 20  1  0  0  0  0
 20 21  1  0  0  0  0
 20 23  2  0  0  0  0
 21 22  3  0  0  0  0
 24 25  2  0  0  0  0
 26 27  1  0  0  0  0
 27 28  1  0  0  0  0
 27 29  1  0  0  0  0
 29 30  2  0  0  0  0
M  END
$$$$

 OpenBabel10082008492D

 25 27  0  0  0  0  0  0  0  0999 V2000
    0.8660    4.5000    0.0000 C   0  0  0  0  0  0  0  0  0  0  0  0
    1.7321    4.0000    0.0000 O   0  0  0  0  0  0  0  0  0  0  0  0
    1.7321    3.0000    0.0000 C   0  0  0  0  0  0  0  0  0  0  0  0
    0.8660    2.5000    0.0000 C   0  0  0  0  0  0  0  0  0  0  0  0
    0.8660    1.5000    0.0000 C   0  0  0  0  0  0  0  0  0  0  0  0
    0.0000    1.0000    0.0000 N   0  0  0  0  0  0  0  0  0  0  0  0
   -0.8660    1.5000    0.0000 C   0  0  0  0  0  0  0  0  0  0  0  0
   -1.7321    1.0000    0.0000 C   0  0  0  0  0  0  0  0  0  0  0  0
   -1.7321    0.0000    0.0000 C   0  0  0  0  0  0  0  0  0  0  0  0
   -2.5981   -0.5000    0.0000 N   0  0  0  0  0  0  0  0  0  0  0  0
   -3.4641    0.0000    0.0000 C   0  0  0  0  0  0  0  0  0  0  0  0
   -3.4641    1.0000    0.0000 O   0  0  0  0  0  0  0  0  0  0  0  0
   -4.3301   -0.5000    0.0000 C   0  0  0  0  0  0  0  0  0  0  0  0
   -5.1962    0.0000    0.0000 C   0  0  0  0  0  0  0  0  0  0  0  0
   -6.0622   -0.5000    0.0000 C   0  0  0  0  0  0  0  0  0  0  0  0
   -6.9282    0.0000    0.0000 Cl  0  0  0  0  0  0  0  0  0  0  0  0
   -6.0622   -1.5000    0.0000 C   0  0  0  0  0  0  0  0  0  0  0  0
   -6.9282   -2.0000    0.0000 N   0  0  0  0  0  0  0  0  0  0  0  0
   -5.1962   -2.0000    0.0000 C   0  0  0  0  0  0  0  0  0  0  0  0
   -4.3301   -1.5000    0.0000 C   0  0  0  0  0  0  0  0  0  0  0  0
   -3.5870   -2.1691    0.0000 O   0  0  0  0  0  0  0  0  0  0  0  0
   -3.9937   -3.0827    0.0000 C   0  0  0  0  0  0  0  0  0  0  0  0
   -4.9882   -2.9781    0.0000 C   0  0  0  0  0  0  0  0  0  0  0  0
   -0.8660   -0.5000    0.0000 C   0  0  0  0  0  0  0  0  0  0  0  0
    0.0000   -0.0000    0.0000 C   0  0  0  0  0  0  0  0  0  0  0  0
  1  2  1  0  0  0  0
  2  3  1  0  0  0  0
  3  4  1  0  0  0  0
  4  5  1  0  0  0  0
  5  6  1  0  0  0  0
  6 25  1  0  0  0  0
  6  7  1  0  0  0  0
  7  8  1  0  0  0  0
  8  9  1  0  0  0  0
  9 10  1  0  0  0  0
  9 24  1  0  0  0  0
 10 11  1  0  0  0  0
 11 12  2  0  0  0  0
 11 13  1  0  0  0  0
 13 20  1  0  0  0  0
 13 14  2  0  0  0  0
 14 15  1  0  0  0  0
 15 16  1  0  0  0  0
 15 17  2  0  0  0  0
 17 18  1  0  0  0  0
 17 19  1  0  0  0  0
 19 23  1  0  0  0  0
 19 20  2  0  0  0  0
 20 21  1  0  0  0  0
 21 22  1  0  0  0  0
 22 23  1  0  0  0  0
 24 25  1  0  0  0  0
M  END
$$$$

 OpenBabel10082008492D

 28 31  0  0  1  0  0  0  0  0999 V2000
    0.8660   -1.5000    0.0000 C   0  0  0  0  0  0  0  0  0  0  0  0
   -0.0000   -1.0000    0.0000 N   0  0  0  0  0  0  0  0  0  0  0  0
   -0.8660   -1.5000    0.0000 C   0  0  0  0  0  0  0  0  0  0  0  0
   -1.7321   -1.0000    0.0000 C   0  0  0  0  0  0  0  0  0  0  0  0
   -1.7321    0.0000    0.0000 N   0  0  0  0  0  0  0  0  0  0  0  0
   -2.5981    0.5000    0.0000 C   0  0  0  0  0  0  0  0  0  0  0  0
   -2.5981    1.5000    0.0000 O   0  0  0  0  0  0  0  0  0  0  0  0
   -3.4641    0.0000    0.0000 O   0  0  0  0  0  0  0  0  0  0  0  0
   -4.3301    0.5000    0.0000 C   0  0  1  0  0  0  0  0  0  0  0  0
   -3.4641    1.0000    0.0000 H   0  0  0  0  0  0  0  0  0  0  0  0
   -4.9179   -0.3090    0.0000 C   0  0  0  0  0  0  0  0  0  0  0  0
   -4.7100   -1.2872    0.0000 N   0  0  0  0  0  0  0  0  0  0  0  0
   -5.4531   -1.9563    0.0000 C   0  0  0  0  0  0  0  0  0  0  0  0
   -6.4042   -1.6473    0.0000 C   0  0  0  0  0  0  0  0  0  0  0  0
   -6.6121   -0.6691    0.0000 N   0  0  0  0  0  0  0  0  0  0  0  0
   -5.8690    0.0000    0.0000 C   0  0  0  0  0  0  0  0  0  0  0  0
   -5.8690    1.0000    0.0000 C   0  0  0  0  0  0  0  0  0  0  0  0
   -6.6780    1.5878    0.0000 O   0  0  0  0  0  0  0  0  0  0  0  0
   -4.9179    1.3090    0.0000 N   0  0  0  0  0  0  0  0  0  0  0  0
   -4.6089    2.2601    0.0000 C   0  0  0  0  0  0  0  0  0  0  0  0
   -5.2780    3.0032    0.0000 C   0  0  0  0  0  0  0  0  0  0  0  0
   -4.9690    3.9543    0.0000 C   0  0  0  0  0  0  0  0  0  0  0  0
   -3.9909    4.1622    0.0000 C   0  0  0  0  0  0  0  0  0  0  0  0
   -3.6818    5.1132    0.0000 Cl  0  0  0  0  0  0  0  0  0  0  0  0
   -3.3217    3.4190    0.0000 C   0  0  0  0  0  0  0  0  0  0  0  0
   -3.6307    2.4680    0.0000 N   0  0  0  0  0  0  0  0  0  0  0  0
   -0.8660    0.5000    0.0000 C   0  0  0  0  0  0  0  0  0  0  0  0
   -0.0000   -0.0000    0.0000 C   0  0  0  0  0  0  0  0  0  0  0  0
  1  2  1  0  0  0  0
  2 28  1  0  0  0  0
  2  3  1  0  0  0  0
  3  4  1  0  0  0  0
  4  5  1  0  0  0  0
  5  6  1  0  0  0  0
  5 27  1  0  0  0  0
  6  7  2  0  0  0  0
  6  8  1  0  0  0  0
  8  9  1  0  0  0  0
  9 10  1  6  0  0  0
  9 19  1  0  0  0  0
  9 11  1  0  0  0  0
 11 16  1  0  0  0  0
 11 12  2  0  0  0  0
 12 13  1  0  0  0  0
 13 14  2  0  0  0  0
 14 15  1  0  0  0  0
 15 16  2  0  0  0  0
 16 17  1  0  0  0  0
 17 18  2  0  0  0  0
 17 19  1  0  0  0  0
 19 20  1  0  0  0  0
 20 26  1  0  0  0  0
 20 21  2  0  0  0  0
 21 22  1  0  0  0  0
 22 23  2  0  0  0  0
 23 24  1  0  0  0  0
 23 25  1  0  0  0  0
 25 26  2  0  0  0  0
 27 28  1  0  0  0  0
M  END
$$$$

 OpenBabel10082008492D

 14 15  0  0  1  0  0  0  0  0999 V2000
   -1.0766   -1.5791    0.0000 C   0  0  0  0  0  0  0  0  0  0  0  0
   -0.7818   -0.6235    0.0000 C   0  0  1  0  0  0  0  0  0  0  0  0
   -0.1017   -1.3565    0.0000 H   0  0  0  0  0  0  0  0  0  0  0  0
   -1.7568   -0.4010    0.0000 C   0  0  0  0  0  0  0  0  0  0  0  0
   -2.1906    0.5000    0.0000 N   0  0  0  0  0  0  0  0  0  0  0  0
   -1.7568    1.4010    0.0000 C   0  0  0  0  0  0  0  0  0  0  0  0
   -0.7818    1.6235    0.0000 C   0  0  0  0  0  0  0  0  0  0  0  0
   -0.0000    1.0000    0.0000 C   0  0  0  0  0  0  0  0  0  0  0  0
    0.8660    1.5000    0.0000 C   0  0  0  0  0  0  0  0  0  0  0  0
    1.7321    1.0000    0.0000 C   0  0  0  0  0  0  0  0  0  0  0  0
    1.7321    0.0000    0.0000 C   0  0  0  0  0  0  0  0  0  0  0  0
    2.5981   -0.5000    0.0000 Cl  0  0  0  0  0  0  0  0  0  0  0  0
    0.8660   -0.5000    0.0000 C   0  0  0  0  0  0  0  0  0  0  0  0
    0.0000   -0.0000    0.0000 C   0  0  0  0  0  0  0  0  0  0  0  0
  1  2  1  0  0  0  0
  2  3  1  6  0  0  0
  2 14  1  0  0  0  0
  2  4  1  0  0  0  0
  4  5  1  0  0  0  0
  5  6  1  0  0  0  0
  6  7  1  0  0  0  0
  7  8  1  0  0  0  0
  8 14  1  0  0  0  0
  8  9  2  0  0  0  0
  9 10  1  0  0  0  0
 10 11  2  0  0  0  0
 11 12  1  0  0  0  0
 11 13  1  0  0  0  0
 13 14  2  0  0  0  0
M  END
$$$$

 OpenBabel10082008492D

 17 17  0  0  0  0  0  0  0  0999 V2000
    1.8660   -4.5000    0.0000 C   0  0  0  0  0  0  0  0  0  0  0  0
    2.7321   -4.0000    0.0000 C   0  0  0  0  0  0  0  0  0  0  0  0
    2.7321   -3.0000    0.0000 C   0  0  0  0  0  0  0  0  0  0  0  0
    1.8660   -2.5000    0.0000 N   0  0  0  0  0  0  0  0  0  0  0  0
    1.8660   -1.5000    0.0000 C   0  0  0  0  0  0  0  0  0  0  0  0
    2.7321   -1.0000    0.0000 O   0  0  0  0  0  0  0  0  0  0  0  0
    1.0000   -1.0000    0.0000 N   0  0  0  0  0  0  0  0  0  0  0  0
    1.0000    0.0000    0.0000 S   0  0  0  0  0  0  0  0  0  0  0  0
    2.0000   -0.0000    0.0000 O   0  0  0  0  0  0  0  0  0  0  0  0
    1.0000    1.0000    0.0000 O   0  0  0  0  0  0  0  0  0  0  0  0
    0.0000    0.0000    0.0000 C   0  0  0  0  0  0  0  0  0  0  0  0
   -0.5000   -0.8660    0.0000 C   0  0  0  0  0  0  0  0  0  0  0  0
   -1.5000   -0.8660    0.0000 C   0  0  0  0  0  0  0  0  0  0  0  0
   -2.0000   -0.0000    0.0000 C   0  0  0  0  0  0  0  0  0  0  0  0
   -3.0000    0.0000    0.0000 Cl  0  0  0  0  0  0  0  0  0  0  0  0
   -1.5000    0.8660    0.0000 C   0  0  0  0  0  0  0  0  0  0  0  0
   -0.5000    0.8660    0.0000 C   0  0  0  0  0  0  0  0  0  0  0  0
  1  2  1  0  0  0  0
  2  3  1  0  0  0  0
  3  4  1  0  0  0  0
  4  5  1  0  0  0  0
  5  6  2  0  0  0  0
  5  7  1  0  0  0  0
  7  8  1  0  0  0  0
  8  9  2  0  0  0  0
  8 10  2  0  0  0  0
  8 11  1  0  0  0  0
 11 17  1  0  0  0  0
 11 12  2  0  0  0  0
 12 13  1  0  0  0  0
 13 14  2  0  0  0  0
 14 15  1  0  0  0  0
 14 16  1  0  0  0  0
 16 17  2  0  0  0  0
M  END
$$$$

 OpenBabel10082008492D

 19 20  0  0  0  0  0  0  0  0999 V2000
   -0.8660   -4.5000    0.0000 N   0  0  0  0  0  0  0  0  0  0  0  0
    0.0000   -4.0000    0.0000 C   0  0  0  0  0  0  0  0  0  0  0  0
    0.8660   -4.5000    0.0000 O   0  0  0  0  0  0  0  0  0  0  0  0
    0.0000   -3.0000    0.0000 C   0  0  0  0  0  0  0  0  0  0  0  0
   -0.8660   -2.5000    0.0000 S   0  3  3  0  0  0  0  0  0  0  0  0
   -1.7321   -3.0000    0.0000 O   0  5  0  0  0  0  0  0  0  0  0  0
   -0.8660   -1.5000    0.0000 C   0  0  0  0  0  0  0  0  0  0  0  0
   -1.7321   -1.0000    0.0000 C   0  0  0  0  0  0  0  0  0  0  0  0
   -1.7321   -0.0000    0.0000 C   0  0  0  0  0  0  0  0  0  0  0  0
   -2.5981    0.5000    0.0000 C   0  0  0  0  0  0  0  0  0  0  0  0
   -3.4641   -0.0000    0.0000 C   0  0  0  0  0  0  0  0  0  0  0  0
   -3.4641   -1.0000    0.0000 C   0  0  0  0  0  0  0  0  0  0  0  0
   -2.5981   -1.5000    0.0000 C   0  0  0  0  0  0  0  0  0  0  0  0
    0.0000   -1.0000    0.0000 C   0  0  0  0  0  0  0  0  0  0  0  0
    0.8660   -1.5000    0.0000 C   0  0  0  0  0  0  0  0  0  0  0  0
    1.7321   -1.0000    0.0000 C   0  0  0  0  0  0  0  0  0  0  0  0
    1.7321    0.0000    0.0000 C   0  0  0  0  0  0  0  0  0  0  0  0
    0.8660    0.5000    0.0000 C   0  0  0  0  0  0  0  0  0  0  0  0
    0.0000    0.0000    0.0000 C   0  0  0  0  0  0  0  0  0  0  0  0
  1  2  1  0  0  0  0
  2  3  2  0  0  0  0
  2  4  1  0  0  0  0
  4  5  1  0  0  0  0
  5  6  1  0  0  0  0
  5  7  1  0  0  0  0
  7  8  1  0  0  0  0
  7 14  1  0  0  0  0
  8 13  1  0  0  0  0
  8  9  2  0  0  0  0
  9 10  1  0  0  0  0
 10 11  2  0  0  0  0
 11 12  1  0  0  0  0
 12 13  2  0  0  0  0
 14 19  1  0  0  0  0
 14 15  2  0  0  0  0
 15 16  1  0  0  0  0
 16 17  2  0  0  0  0
 17 18  1  0  0  0  0
 18 19  2  0  0  0  0
M  CHG  2   5   1   6  -1
M  END
$$$$

 OpenBabel10082008492D

 31 33  0  0  1  0  0  0  0  0999 V2000
    1.6910   -1.8339    0.0000 C   0  0  0  0  0  0  0  0  0  0  0  0
    1.3140   -0.9698    0.0000 O   0  0  0  0  0  0  0  0  0  0  0  0
    0.3770   -0.8642    0.0000 C   0  0  0  0  0  0  0  0  0  0  0  0
   -0.1828   -1.6228    0.0000 C   0  0  0  0  0  0  0  0  0  0  0  0
   -1.1198   -1.5172    0.0000 C   0  0  0  0  0  0  0  0  0  0  0  0
   -1.4968   -0.6531    0.0000 C   0  0  0  0  0  0  0  0  0  0  0  0
   -3.3707   -0.4419    0.0000 C   0  0  2  0  0  0  0  0  0  0  0  0
   -3.9593   -1.1785    0.0000 H   0  0  0  0  0  0  0  0  0  0  0  0
   -4.2899   -0.6517    0.0000 S   0  0  0  0  0  0  0  0  0  0  0  0
   -5.0270   -0.0639    0.0000 C   0  0  0  0  0  0  0  0  0  0  0  0
   -5.8436   -0.5353    0.0000 C   0  0  0  0  0  0  0  0  0  0  0  0
   -6.6601   -0.0639    0.0000 C   0  0  0  0  0  0  0  0  0  0  0  0
   -6.6601    0.8790    0.0000 C   0  0  0  0  0  0  0  0  0  0  0  0
   -5.8436    1.3504    0.0000 C   0  0  0  0  0  0  0  0  0  0  0  0
   -5.0270    0.8790    0.0000 C   0  0  0  0  0  0  0  0  0  0  0  0
   -4.2899    1.4669    0.0000 N   0  0  0  0  0  0  0  0  0  0  0  0
   -4.4997    2.3861    0.0000 C   0  0  0  0  0  0  0  0  0  0  0  0
   -5.4007    2.6640    0.0000 C   0  0  0  0  0  0  0  0  0  0  0  0
   -5.6105    3.5832    0.0000 N   0  0  0  0  0  0  0  0  0  0  0  0
   -6.5114    3.8611    0.0000 C   0  0  0  0  0  0  0  0  0  0  0  0
   -4.9193    4.2245    0.0000 C   0  0  0  0  0  0  0  0  0  0  0  0
   -3.3707    1.2570    0.0000 C   0  0  0  0  0  0  0  0  0  0  0  0
   -2.7828    1.9942    0.0000 O   0  0  0  0  0  0  0  0  0  0  0  0
   -2.9616    0.4076    0.0000 C   0  0  2  0  0  0  0  0  0  0  0  0
   -2.1450   -0.0639    0.0000 H   0  0  0  0  0  0  0  0  0  0  0  0
   -1.3285    1.3504    0.0000 O   0  0  0  0  0  0  0  0  0  0  0  0
   -1.3285    2.2933    0.0000 C   0  0  0  0  0  0  0  0  0  0  0  0
   -0.5120    2.7647    0.0000 C   0  0  0  0  0  0  0  0  0  0  0  0
   -2.1450    2.7647    0.0000 O   0  0  0  0  0  0  0  0  0  0  0  0
   -0.9369    0.1056    0.0000 C   0  0  0  0  0  0  0  0  0  0  0  0
   -0.0000   -0.0000    0.0000 C   0  0  0  0  0  0  0  0  0  0  0  0
  1  2  1  0  0  0  0
  2  3  1  0  0  0  0
  3 31  1  0  0  0  0
  3  4  2  0  0  0  0
  4  5  1  0  0  0  0
  5  6  2  0  0  0  0
  6  7  1  0  0  0  0
  6 30  1  0  0  0  0
  7  8  1  1  0  0  0
  7 24  1  0  0  0  0
  7  9  1  0  0  0  0
  9 10  1  0  0  0  0
 10 15  1  0  0  0  0
 10 11  2  0  0  0  0
 11 12  1  0  0  0  0
 12 13  2  0  0  0  0
 13 14  1  0  0  0  0
 14 15  2  0  0  0  0
 15 16  1  0  0  0  0
 16 17  1  0  0  0  0
 16 22  1  0  0  0  0
 17 18  1  0  0  0  0
 18 19  1  0  0  0  0
 19 20  1  0  0  0  0
 19 21  1  0  0  0  0
 22 23  2  0  0  0  0
 22 24  1  0  0  0  0
 24 25  1  1  0  0  0
 24 26  1  0  0  0  0
 26 27  1  0  0  0  0
 27 28  1  0  0  0  0
 27 29  2  0  0  0  0
 30 31  2  0  0  0  0
M  END
$$$$

 OpenBabel10082008492D

 16 15  0  0  0  0  0  0  0  0999 V2000
    5.1962    2.0000    0.0000 C   0  0  0  0  0  0  0  0  0  0  0  0
    5.1962    3.0000    0.0000 C   0  0  0  0  0  0  0  0  0  0  0  0
    4.3301    3.5000    0.0000 N   0  0  0  0  0  0  0  0  0  0  0  0
    4.3301    4.5000    0.0000 C   0  0  0  0  0  0  0  0  0  0  0  0
    3.4641    5.0000    0.0000 C   0  0  0  0  0  0  0  0  0  0  0  0
    3.4641    3.0000    0.0000 C   0  0  0  0  0  0  0  0  0  0  0  0
    2.5981    3.5000    0.0000 S   0  0  0  0  0  0  0  0  0  0  0  0
    3.4641    2.0000    0.0000 S   0  0  0  0  0  0  0  0  0  0  0  0
    2.5981    1.5000    0.0000 S   0  0  0  0  0  0  0  0  0  0  0  0
    1.7321    2.0000    0.0000 C   0  0  0  0  0  0  0  0  0  0  0  0
    1.7321    3.0000    0.0000 S   0  0  0  0  0  0  0  0  0  0  0  0
    0.8660    1.5000    0.0000 N   0  0  0  0  0  0  0  0  0  0  0  0
   -0.0000    2.0000    0.0000 C   0  0  0  0  0  0  0  0  0  0  0  0
   -0.8660    1.5000    0.0000 C   0  0  0  0  0  0  0  0  0  0  0  0
    0.8660    0.5000    0.0000 C   0  0  0  0  0  0  0  0  0  0  0  0
    0.0000    0.0000    0.0000 C   0  0  0  0  0  0  0  0  0  0  0  0
  1  2  1  0  0  0  0
  2  3  1  0  0  0  0
  3  4  1  0  0  0  0
  3  6  1  0  0  0  0
  4  5  1  0  0  0  0
  6  7  2  0  0  0  0
  6  8  1  0  0  0  0
  8  9  1  0  0  0  0
  9 10  1  0  0  0  0
 10 11  2  0  0  0  0
 10 12  1  0  0  0  0
 12 13  1  0  0  0  0
 12 15  1  0  0  0  0
 13 14  1  0  0  0  0
 15 16  1  0  0  0  0
M  END
$$$$

 OpenBabel10082008492D

 37 40  0  0  1  0  0  0  0  0999 V2000
   -1.8660   -1.5000    0.0000 C   0  0  0  0  0  0  0  0  0  0  0  0
   -0.8660   -1.5000    0.0000 C   0  0  0  0  0  0  0  0  0  0  0  0
   -0.8660   -2.5000    0.0000 C   0  0  0  0  0  0  0  0  0  0  0  0
    0.1340   -1.5000    0.0000 C   0  0  0  0  0  0  0  0  0  0  0  0
    0.6340   -2.3660    0.0000 O   0  0  0  0  0  0  0  0  0  0  0  0
    0.6340   -0.6340    0.0000 O   0  0  0  0  0  0  0  0  0  0  0  0
   -0.8660   -0.5000    0.0000 C   0  0  0  0  0  0  0  0  0  0  0  0
   -1.7321    0.0000    0.0000 C   0  0  0  0  0  0  0  0  0  0  0  0
   -1.7321    1.0000    0.0000 C   0  0  0  0  0  0  0  0  0  0  0  0
   -0.8660    1.5000    0.0000 C   0  0  0  0  0  0  0  0  0  0  0  0
   -0.8660    2.5000    0.0000 C   0  0  3  0  0  0  0  0  0  0  0  0
    0.0000    3.0000    0.0000 O   0  0  0  0  0  0  0  0  0  0  0  0
   -1.7321    3.0000    0.0000 C   0  0  0  0  0  0  0  0  0  0  0  0
   -2.5981    2.5000    0.0000 C   0  0  0  0  0  0  0  0  0  0  0  0
   -2.5981    1.5000    0.0000 C   0  0  0  0  0  0  0  0  0  0  0  0
   -3.4641    1.0000    0.0000 N   0  0  0  0  0  0  0  0  0  0  0  0
   -3.4641    0.0000    0.0000 C   0  0  0  0  0  0  0  0  0  0  0  0
   -4.3301   -0.5000    0.0000 C   0  0  0  0  0  0  0  0  0  0  0  0
   -5.1962    0.0000    0.0000 C   0  0  3  0  0  0  0  0  0  0  0  0
   -6.0622   -0.5000    0.0000 C   0  0  0  0  0  0  0  0  0  0  0  0
   -6.5622    0.3660    0.0000 O   0  0  0  0  0  0  0  0  0  0  0  0
   -6.9282   -1.0000    0.0000 C   0  0  0  0  0  0  0  0  0  0  0  0
   -6.9282   -2.0000    0.0000 C   0  0  0  0  0  0  0  0  0  0  0  0
   -7.7942   -2.5000    0.0000 C   0  0  0  0  0  0  0  0  0  0  0  0
   -8.6603   -2.0000    0.0000 C   0  0  0  0  0  0  0  0  0  0  0  0
   -8.6603   -1.0000    0.0000 C   0  0  0  0  0  0  0  0  0  0  0  0
   -7.7942   -0.5000    0.0000 C   0  0  0  0  0  0  0  0  0  0  0  0
   -5.5622   -1.3660    0.0000 C   0  0  0  0  0  0  0  0  0  0  0  0
   -4.5622   -1.3660    0.0000 C   0  0  0  0  0  0  0  0  0  0  0  0
   -4.0622   -2.2321    0.0000 C   0  0  0  0  0  0  0  0  0  0  0  0
   -4.5622   -3.0981    0.0000 C   0  0  0  0  0  0  0  0  0  0  0  0
   -5.5622   -3.0981    0.0000 C   0  0  0  0  0  0  0  0  0  0  0  0
   -6.0622   -2.2321    0.0000 C   0  0  0  0  0  0  0  0  0  0  0  0
   -5.1962    1.0000    0.0000 C   0  0  0  0  0  0  0  0  0  0  0  0
   -4.3301    1.5000    0.0000 C   0  0  0  0  0  0  0  0  0  0  0  0
    0.0000    1.0000    0.0000 C   0  0  0  0  0  0  0  0  0  0  0  0
    0.0000   -0.0000    0.0000 C   0  0  0  0  0  0  0  0  0  0  0  0
  1  2  1  0  0  0  0
  2  3  1  0  0  0  0
  2  4  1  0  0  0  0
  2  7  1  0  0  0  0
  4  5  2  0  0  0  0
  4  6  1  0  0  0  0
  7 37  1  0  0  0  0
  7  8  2  0  0  0  0
  8  9  1  0  0  0  0
  9 10  2  0  0  0  0
 10 11  1  0  0  0  0
 10 36  1  0  0  0  0
 11 12  1  0  0  0  0
 11 13  1  0  0  0  0
 13 14  1  0  0  0  0
 14 15  1  0  0  0  0
 15 16  1  0  0  0  0
 16 35  1  0  0  0  0
 16 17  1  0  0  0  0
 17 18  1  0  0  0  0
 18 19  1  0  0  0  0
 19 20  1  0  0  0  0
 19 34  1  0  0  0  0
 20 21  1  0  0  0  0
 20 22  1  0  0  0  0
 20 28  1  0  0  0  0
 22 27  1  0  0  0  0
 22 23  2  0  0  0  0
 23 24  1  0  0  0  0
 24 25  2  0  0  0  0
 25 26  1  0  0  0  0
 26 27  2  0  0  0  0
 28 33  1  0  0  0  0
 28 29  2  0  0  0  0
 29 30  1  0  0  0  0
 30 31  2  0  0  0  0
 31 32  1  0  0  0  0
 32 33  2  0  0  0  0
 34 35  1  0  0  0  0
 36 37  2  0  0  0  0
M  END
$$$$

 OpenBabel10082008492D

 21 22  0  0  1  0  0  0  0  0999 V2000
    2.5981   -1.5000    0.0000 C   0  0  0  0  0  0  0  0  0  0  0  0
    2.5981   -0.5000    0.0000 C   0  0  3  0  0  0  0  0  0  0  0  0
    3.4641   -0.0000    0.0000 N   0  0  0  0  0  0  0  0  0  0  0  0
    3.4641    1.0000    0.0000 C   0  0  0  0  0  0  0  0  0  0  0  0
    4.3301    1.5000    0.0000 C   0  0  0  0  0  0  0  0  0  0  0  0
    5.1962    1.0000    0.0000 C   0  0  0  0  0  0  0  0  0  0  0  0
    6.0622    1.5000    0.0000 C   0  0  0  0  0  0  0  0  0  0  0  0
    6.9282    1.0000    0.0000 C   0  0  0  0  0  0  0  0  0  0  0  0
    6.9282   -0.0000    0.0000 C   0  0  0  0  0  0  0  0  0  0  0  0
    7.7942   -0.5000    0.0000 O   0  0  0  0  0  0  0  0  0  0  0  0
    6.0622   -0.5000    0.0000 C   0  0  0  0  0  0  0  0  0  0  0  0
    5.1962   -0.0000    0.0000 C   0  0  0  0  0  0  0  0  0  0  0  0
    1.7321   -0.0000    0.0000 C   0  0  3  0  0  0  0  0  0  0  0  0
    1.7321    1.0000    0.0000 O   0  0  0  0  0  0  0  0  0  0  0  0
    0.8660   -0.5000    0.0000 C   0  0  0  0  0  0  0  0  0  0  0  0
    0.8660   -1.5000    0.0000 C   0  0  0  0  0  0  0  0  0  0  0  0
   -0.0000   -2.0000    0.0000 C   0  0  0  0  0  0  0  0  0  0  0  0
   -0.8660   -1.5000    0.0000 C   0  0  0  0  0  0  0  0  0  0  0  0
   -1.7321   -2.0000    0.0000 O   0  0  0  0  0  0  0  0  0  0  0  0
   -0.8660   -0.5000    0.0000 C   0  0  0  0  0  0  0  0  0  0  0  0
    0.0000    0.0000    0.0000 C   0  0  0  0  0  0  0  0  0  0  0  0
  1  2  1  0  0  0  0
  2  3  1  0  0  0  0
  2 13  1  0  0  0  0
  3  4  1  0  0  0  0
  4  5  1  0  0  0  0
  5  6  1  0  0  0  0
  6 12  1  0  0  0  0
  6  7  2  0  0  0  0
  7  8  1  0  0  0  0
  8  9  2  0  0  0  0
  9 10  1  0  0  0  0
  9 11  1  0  0  0  0
 11 12  2  0  0  0  0
 13 14  1  0  0  0  0
 13 15  1  0  0  0  0
 15 21  1  0  0  0  0
 15 16  2  0  0  0  0
 16 17  1  0  0  0  0
 17 18  2  0  0  0  0
 18 19  1  0  0  0  0
 18 20  1  0  0  0  0
 20 21  2  0  0  0  0
M  END
$$$$

 OpenBabel10082008492D

 34 37  0  0  0  0  0  0  0  0999 V2000
   -3.7638    0.2765    0.0000 C   0  0  0  0  0  0  0  0  0  0  0  0
   -2.7979    0.0176    0.0000 C   0  0  0  0  0  0  0  0  0  0  0  0
   -2.0908    0.7247    0.0000 O   0  0  0  0  0  0  0  0  0  0  0  0
   -1.1248    0.4659    0.0000 C   0  0  0  0  0  0  0  0  0  0  0  0
   -0.4177    1.1730    0.0000 O   0  0  0  0  0  0  0  0  0  0  0  0
   -0.8660   -0.5000    0.0000 C   0  0  0  0  0  0  0  0  0  0  0  0
   -1.6594   -1.1088    0.0000 C   0  0  0  0  0  0  0  0  0  0  0  0
   -2.5833   -0.7261    0.0000 C   0  0  0  0  0  0  0  0  0  0  0  0
   -3.3766   -1.3348    0.0000 C   0  0  0  0  0  0  0  0  0  0  0  0
   -3.2461   -2.3263    0.0000 C   0  0  0  0  0  0  0  0  0  0  0  0
   -2.3222   -2.7090    0.0000 C   0  0  0  0  0  0  0  0  0  0  0  0
   -1.5289   -2.1002    0.0000 C   0  0  0  0  0  0  0  0  0  0  0  0
   -0.8660   -1.5000    0.0000 C   0  0  0  0  0  0  0  0  0  0  0  0
    0.0000   -2.0000    0.0000 C   0  0  0  0  0  0  0  0  0  0  0  0
    0.8660   -1.5000    0.0000 N   0  0  0  0  0  0  0  0  0  0  0  0
    1.7321   -2.0000    0.0000 C   0  0  0  0  0  0  0  0  0  0  0  0
    2.5981   -1.5000    0.0000 C   0  0  0  0  0  0  0  0  0  0  0  0
    3.4641   -2.0000    0.0000 C   0  0  0  0  0  0  0  0  0  0  0  0
    3.9641   -1.1340    0.0000 C   0  0  0  0  0  0  0  0  0  0  0  0
    4.4641   -0.2679    0.0000 N   0  0  0  0  0  0  0  0  0  0  0  0
    4.3301   -2.5000    0.0000 C   0  0  0  0  0  0  0  0  0  0  0  0
    4.3301   -3.5000    0.0000 C   0  0  0  0  0  0  0  0  0  0  0  0
    5.1962   -4.0000    0.0000 C   0  0  0  0  0  0  0  0  0  0  0  0
    6.0622   -3.5000    0.0000 C   0  0  0  0  0  0  0  0  0  0  0  0
    6.0622   -2.5000    0.0000 C   0  0  0  0  0  0  0  0  0  0  0  0
    5.1962   -2.0000    0.0000 C   0  0  0  0  0  0  0  0  0  0  0  0
    2.9641   -2.8660    0.0000 C   0  0  0  0  0  0  0  0  0  0  0  0
    1.9641   -2.8660    0.0000 C   0  0  0  0  0  0  0  0  0  0  0  0
    1.4641   -3.7321    0.0000 C   0  0  0  0  0  0  0  0  0  0  0  0
    1.9641   -4.5981    0.0000 C   0  0  0  0  0  0  0  0  0  0  0  0
    2.9641   -4.5981    0.0000 C   0  0  0  0  0  0  0  0  0  0  0  0
    3.4641   -3.7321    0.0000 C   0  0  0  0  0  0  0  0  0  0  0  0
    0.8660   -0.5000    0.0000 C   0  0  0  0  0  0  0  0  0  0  0  0
    0.0000   -0.0000    0.0000 C   0  0  0  0  0  0  0  0  0  0  0  0
  1  2  1  0  0  0  0
  2  3  1  0  0  0  0
  3  4  1  0  0  0  0
  4  5  2  0  0  0  0
  4  6  1  0  0  0  0
  6 34  1  0  0  0  0
  6  7  1  0  0  0  0
  6 13  1  0  0  0  0
  7 12  1  0  0  0  0
  7  8  2  0  0  0  0
  8  9  1  0  0  0  0
  9 10  2  0  0  0  0
 10 11  1  0  0  0  0
 11 12  2  0  0  0  0
 13 14  1  0  0  0  0
 14 15  1  0  0  0  0
 15 16  1  0  0  0  0
 15 33  1  0  0  0  0
 16 17  1  0  0  0  0
 17 18  1  0  0  0  0
 18 19  1  0  0  0  0
 18 21  1  0  0  0  0
 18 27  1  0  0  0  0
 19 20  3  0  0  0  0
 21 26  1  0  0  0  0
 21 22  2  0  0  0  0
 22 23  1  0  0  0  0
 23 24  2  0  0  0  0
 24 25  1  0  0  0  0
 25 26  2  0  0  0  0
 27 32  1  0  0  0  0
 27 28  2  0  0  0  0
 28 29  1  0  0  0  0
 29 30  2  0  0  0  0
 30 31  1  0  0  0  0
 31 32  2  0  0  0  0
 33 34  1  0  0  0  0
M  END
$$$$

 OpenBabel10082008492D

 17 17  0  0  1  0  0  0  0  0999 V2000
    2.6424    0.0167    0.0000 C   0  0  0  0  0  0  0  0  0  0  0  0
    1.9746    0.6845    0.0000 C   0  0  0  0  0  0  0  0  0  0  0  0
    1.0624    0.4400    0.0000 C   0  0  0  0  0  0  0  0  0  0  0  0
    0.8179   -0.4722    0.0000 C   0  0  0  0  0  0  0  0  0  0  0  0
    2.3165   -1.6221    0.0000 C   0  0  3  0  0  0  0  0  0  0  0  0
    2.1932   -2.5585    0.0000 C   0  0  0  0  0  0  0  0  0  0  0  0
    3.1890   -1.2607    0.0000 C   0  0  0  0  0  0  0  0  0  0  0  0
    3.9383   -1.8356    0.0000 C   0  0  0  0  0  0  0  0  0  0  0  0
    3.8150   -2.7720    0.0000 C   0  0  0  0  0  0  0  0  0  0  0  0
    0.8179   -1.4167    0.0000 C   0  0  0  0  0  0  0  0  0  0  0  0
    1.6358   -1.8889    0.0000 O   0  0  0  0  0  0  0  0  0  0  0  0
   -0.0000   -1.8889    0.0000 N   0  0  0  0  0  0  0  0  0  0  0  0
   -0.8179   -1.4167    0.0000 C   0  0  0  0  0  0  0  0  0  0  0  0
   -1.6358   -1.8889    0.0000 O   0  0  0  0  0  0  0  0  0  0  0  0
   -0.8179   -0.4722    0.0000 N   0  0  0  0  0  0  0  0  0  0  0  0
   -0.0000   -0.0000    0.0000 C   0  0  0  0  0  0  0  0  0  0  0  0
   -0.0000    0.9444    0.0000 O   0  0  0  0  0  0  0  0  0  0  0  0
  1  2  2  0  0  0  0
  2  3  1  0  0  0  0
  3  4  1  0  0  0  0
  4 16  1  0  0  0  0
  4  5  1  0  0  0  0
  4 10  1  0  0  0  0
  5  6  1  0  0  0  0
  5  7  1  0  0  0  0
  7  8  1  0  0  0  0
  8  9  1  0  0  0  0
 10 11  2  0  0  0  0
 10 12  1  0  0  0  0
 12 13  1  0  0  0  0
 13 14  2  0  0  0  0
 13 15  1  0  0  0  0
 15 16  1  0  0  0  0
 16 17  2  0  0  0  0
M  END
$$$$

 OpenBabel10082008492D

 11 12  0  0  0  0  0  0  0  0999 V2000
    0.8660    1.5000    0.0000 S   0  0  0  0  0  0  0  0  0  0  0  0
    0.8660    0.5000    0.0000 C   0  0  0  0  0  0  0  0  0  0  0  0
    1.7321    0.0000    0.0000 N   0  0  0  0  0  0  0  0  0  0  0  0
    1.7321   -1.0000    0.0000 C   0  0  0  0  0  0  0  0  0  0  0  0
    0.8660   -1.5000    0.0000 N   0  0  0  0  0  0  0  0  0  0  0  0
   -0.0000   -1.0000    0.0000 C   0  0  0  0  0  0  0  0  0  0  0  0
   -0.9511   -1.3090    0.0000 N   0  0  0  0  0  0  0  0  0  0  0  0
   -1.5388   -0.5000    0.0000 C   0  0  0  0  0  0  0  0  0  0  0  0
   -0.9511    0.3090    0.0000 N   0  0  0  0  0  0  0  0  0  0  0  0
   -1.2601    1.2601    0.0000 H   0  0  0  0  0  0  0  0  0  0  0  0
    0.0000    0.0000    0.0000 C   0  0  0  0  0  0  0  0  0  0  0  0
  1  2  1  0  0  0  0
  2 11  1  0  0  0  0
  2  3  2  0  0  0  0
  3  4  1  0  0  0  0
  4  5  2  0  0  0  0
  5  6  1  0  0  0  0
  6 11  2  0  0  0  0
  6  7  1  0  0  0  0
  7  8  2  0  0  0  0
  8  9  1  0  0  0  0
  9 10  1  0  0  0  0
  9 11  1  0  0  0  0
M  END
$$$$

 OpenBabel10082008492D

 20 21  0  0  1  0  0  0  0  0999 V2000
    3.4641    1.0000    0.0000 C   0  0  0  0  0  0  0  0  0  0  0  0
    2.5981    1.5000    0.0000 C   0  0  0  0  0  0  0  0  0  0  0  0
    2.5981    2.5000    0.0000 C   0  0  0  0  0  0  0  0  0  0  0  0
    1.7321    1.0000    0.0000 N   0  0  0  0  0  0  0  0  0  0  0  0
    1.7321   -0.0000    0.0000 C   0  0  0  0  0  0  0  0  0  0  0  0
    0.8660   -0.5000    0.0000 C   0  0  3  0  0  0  0  0  0  0  0  0
    0.8660   -1.5000    0.0000 C   0  0  0  0  0  0  0  0  0  0  0  0
    0.0000   -2.0000    0.0000 C   0  0  0  0  0  0  0  0  0  0  0  0
   -0.8660   -1.5000    0.0000 C   0  0  0  0  0  0  0  0  0  0  0  0
   -1.7321   -2.0000    0.0000 C   0  0  0  0  0  0  0  0  0  0  0  0
   -2.5981   -1.5000    0.0000 C   0  0  0  0  0  0  0  0  0  0  0  0
   -3.4641   -2.0000    0.0000 C   0  0  0  0  0  0  0  0  0  0  0  0
   -3.4641   -3.0000    0.0000 O   0  0  0  0  0  0  0  0  0  0  0  0
   -2.5981   -0.5000    0.0000 C   0  0  0  0  0  0  0  0  0  0  0  0
   -3.4641    0.0000    0.0000 N   0  3  0  0  0  0  0  0  0  0  0  0
   -3.4641    1.0000    0.0000 O   0  0  0  0  0  0  0  0  0  0  0  0
   -4.3301   -0.5000    0.0000 O   0  5  0  0  0  0  0  0  0  0  0  0
   -1.7321    0.0000    0.0000 C   0  0  0  0  0  0  0  0  0  0  0  0
   -0.8660   -0.5000    0.0000 C   0  0  0  0  0  0  0  0  0  0  0  0
   -0.0000   -0.0000    0.0000 N   0  0  0  0  0  0  0  0  0  0  0  0
  1  2  1  0  0  0  0
  2  3  1  0  0  0  0
  2  4  1  0  0  0  0
  4  5  1  0  0  0  0
  5  6  1  0  0  0  0
  6 20  1  0  0  0  0
  6  7  1  0  0  0  0
  7  8  1  0  0  0  0
  8  9  1  0  0  0  0
  9 19  1  0  0  0  0
  9 10  2  0  0  0  0
 10 11  1  0  0  0  0
 11 12  1  0  0  0  0
 11 14  2  0  0  0  0
 12 13  1  0  0  0  0
 14 15  1  0  0  0  0
 14 18  1  0  0  0  0
 15 16  2  0  0  0  0
 15 17  1  0  0  0  0
 18 19  2  0  0  0  0
 19 20  1  0  0  0  0
M  CHG  2  15   1  17  -1
M  END
$$$$

 OpenBabel10082008492D

 26 27  0  0  0  0  0  0  0  0999 V2000
    4.3301    0.5000    0.0000 O   0  0  0  0  0  0  0  0  0  0  0  0
    4.3301    1.5000    0.0000 C   0  0  0  0  0  0  0  0  0  0  0  0
    5.1962    2.0000    0.0000 O   0  0  0  0  0  0  0  0  0  0  0  0
    3.4641    2.0000    0.0000 C   0  0  0  0  0  0  0  0  0  0  0  0
    2.5981    1.5000    0.0000 C   0  0  0  0  0  0  0  0  0  0  0  0
    1.7321    2.0000    0.0000 N   0  0  0  0  0  0  0  0  0  0  0  0
    0.8660    1.5000    0.0000 C   0  0  0  0  0  0  0  0  0  0  0  0
    0.0000    2.0000    0.0000 O   0  0  0  0  0  0  0  0  0  0  0  0
    0.8660    0.5000    0.0000 C   0  0  0  0  0  0  0  0  0  0  0  0
    1.7321   -0.0000    0.0000 C   0  0  0  0  0  0  0  0  0  0  0  0
    1.7321   -1.0000    0.0000 C   0  0  0  0  0  0  0  0  0  0  0  0
    0.8660   -1.5000    0.0000 C   0  0  0  0  0  0  0  0  0  0  0  0
    0.8660   -2.5000    0.0000 N   0  0  0  0  0  0  0  0  0  0  0  0
   -0.0000   -3.0000    0.0000 N   0  0  0  0  0  0  0  0  0  0  0  0
   -0.0000   -4.0000    0.0000 C   0  0  0  0  0  0  0  0  0  0  0  0
   -0.8660   -4.5000    0.0000 C   0  0  0  0  0  0  0  0  0  0  0  0
   -0.8660   -5.5000    0.0000 C   0  0  0  0  0  0  0  0  0  0  0  0
   -0.0000   -6.0000    0.0000 C   0  0  0  0  0  0  0  0  0  0  0  0
   -0.0000   -7.0000    0.0000 O   0  0  0  0  0  0  0  0  0  0  0  0
    0.8660   -5.5000    0.0000 C   0  0  0  0  0  0  0  0  0  0  0  0
    1.7321   -6.0000    0.0000 C   0  0  0  0  0  0  0  0  0  0  0  0
    2.5981   -5.5000    0.0000 O   0  0  0  0  0  0  0  0  0  0  0  0
    1.7321   -7.0000    0.0000 O   0  0  0  0  0  0  0  0  0  0  0  0
    0.8660   -4.5000    0.0000 C   0  0  0  0  0  0  0  0  0  0  0  0
    0.0000   -1.0000    0.0000 C   0  0  0  0  0  0  0  0  0  0  0  0
    0.0000    0.0000    0.0000 C   0  0  0  0  0  0  0  0  0  0  0  0
  1  2  2  0  0  0  0
  2  3  1  0  0  0  0
  2  4  1  0  0  0  0
  4  5  1  0  0  0  0
  5  6  1  0  0  0  0
  6  7  1  0  0  0  0
  7  8  2  0  0  0  0
  7  9  1  0  0  0  0
  9 26  1  0  0  0  0
  9 10  2  0  0  0  0
 10 11  1  0  0  0  0
 11 12  2  0  0  0  0
 12 13  1  0  0  0  0
 12 25  1  0  0  0  0
 13 14  2  0  0  0  0
 14 15  1  0  0  0  0
 15 24  1  0  0  0  0
 15 16  2  0  0  0  0
 16 17  1  0  0  0  0
 17 18  2  0  0  0  0
 18 19  1  0  0  0  0
 18 20  1  0  0  0  0
 20 21  1  0  0  0  0
 20 24  2  0  0  0  0
 21 22  2  0  0  0  0
 21 23  1  0  0  0  0
 25 26  2  0  0  0  0
M  END
$$$$

 OpenBabel10082008492D

 25 27  0  0  0  0  0  0  0  0999 V2000
   -0.8262   -1.4367    0.0000 F   0  0  0  0  0  0  0  0  0  0  0  0
   -1.6923   -0.9367    0.0000 C   0  0  0  0  0  0  0  0  0  0  0  0
   -2.5583   -1.4367    0.0000 C   0  0  0  0  0  0  0  0  0  0  0  0
   -3.4243   -0.9367    0.0000 C   0  0  0  0  0  0  0  0  0  0  0  0
   -3.4243    0.0633    0.0000 C   0  0  0  0  0  0  0  0  0  0  0  0
   -2.5583    0.5633    0.0000 C   0  0  0  0  0  0  0  0  0  0  0  0
   -1.6923    0.0633    0.0000 C   0  0  0  0  0  0  0  0  0  0  0  0
   -0.8262    0.5633    0.0000 C   0  0  0  0  0  0  0  0  0  0  0  0
   -0.9010    1.5605    0.0000 N   0  0  0  0  0  0  0  0  0  0  0  0
   -0.1679    2.2407    0.0000 C   0  0  0  0  0  0  0  0  0  0  0  0
    0.8209    2.0917    0.0000 C   0  0  0  0  0  0  0  0  0  0  0  0
    1.3842    2.9179    0.0000 S   0  0  0  0  0  0  0  0  0  0  0  0
    1.3209    1.2256    0.0000 N   0  0  0  0  0  0  0  0  0  0  0  0
    2.3181    1.3004    0.0000 C   0  0  0  0  0  0  0  0  0  0  0  0
    2.7520    2.2013    0.0000 C   0  0  0  0  0  0  0  0  0  0  0  0
    2.6773    3.1985    0.0000 F   0  0  0  0  0  0  0  0  0  0  0  0
    1.8510    2.6352    0.0000 F   0  0  0  0  0  0  0  0  0  0  0  0
    3.7492    2.2761    0.0000 F   0  0  0  0  0  0  0  0  0  0  0  0
    0.9556    0.2948    0.0000 C   0  0  0  0  0  0  0  0  0  0  0  0
    1.6886   -0.3854    0.0000 C   0  0  0  0  0  0  0  0  0  0  0  0
    1.4661   -1.3603    0.0000 C   0  0  0  0  0  0  0  0  0  0  0  0
    0.5105   -1.6551    0.0000 C   0  0  0  0  0  0  0  0  0  0  0  0
    0.2880   -2.6300    0.0000 Cl  0  0  0  0  0  0  0  0  0  0  0  0
   -0.2225   -0.9749    0.0000 C   0  0  0  0  0  0  0  0  0  0  0  0
   -0.0000   -0.0000    0.0000 C   0  0  0  0  0  0  0  0  0  0  0  0
  1  2  1  0  0  0  0
  2  7  1  0  0  0  0
  2  3  2  0  0  0  0
  3  4  1  0  0  0  0
  4  5  2  0  0  0  0
  5  6  1  0  0  0  0
  6  7  2  0  0  0  0
  7  8  1  0  0  0  0
  8 25  1  0  0  0  0
  8  9  2  0  0  0  0
  9 10  1  0  0  0  0
 10 11  1  0  0  0  0
 11 12  2  0  0  0  0
 11 13  1  0  0  0  0
 13 14  1  0  0  0  0
 13 19  1  0  0  0  0
 14 15  1  0  0  0  0
 15 16  1  0  0  0  0
 15 17  1  0  0  0  0
 15 18  1  0  0  0  0
 19 25  1  0  0  0  0
 19 20  2  0  0  0  0
 20 21  1  0  0  0  0
 21 22  2  0  0  0  0
 22 23  1  0  0  0  0
 22 24  1  0  0  0  0
 24 25  2  0  0  0  0
M  END
$$$$

 OpenBabel10082008492D

 22 22  0  0  1  0  0  0  0  0999 V2000
    3.4641   -0.0000    0.0000 C   0  0  0  0  0  0  0  0  0  0  0  0
    3.4641    1.0000    0.0000 C   0  0  0  0  0  0  0  0  0  0  0  0
    2.5981    1.5000    0.0000 C   0  0  0  0  0  0  0  0  0  0  0  0
    1.7321    1.0000    0.0000 C   0  0  0  0  0  0  0  0  0  0  0  0
    0.8660    1.5000    0.0000 O   0  0  0  0  0  0  0  0  0  0  0  0
    1.7321    0.0000    0.0000 N   0  0  0  0  0  0  0  0  0  0  0  0
    0.8660   -0.5000    0.0000 C   0  0  0  0  0  0  0  0  0  0  0  0
    0.8660   -1.5000    0.0000 C   0  0  0  0  0  0  0  0  0  0  0  0
    1.7321   -2.0000    0.0000 I   0  0  0  0  0  0  0  0  0  0  0  0
    0.0000   -2.0000    0.0000 C   0  0  0  0  0  0  0  0  0  0  0  0
   -0.8660   -1.5000    0.0000 C   0  0  0  0  0  0  0  0  0  0  0  0
   -1.7321   -2.0000    0.0000 I   0  0  0  0  0  0  0  0  0  0  0  0
   -0.8660   -0.5000    0.0000 C   0  0  0  0  0  0  0  0  0  0  0  0
   -1.7321   -0.0000    0.0000 C   0  0  0  0  0  0  0  0  0  0  0  0
   -2.5981   -0.5000    0.0000 C   0  0  3  0  0  0  0  0  0  0  0  0
   -2.5981   -1.5000    0.0000 C   0  0  0  0  0  0  0  0  0  0  0  0
   -3.4641   -2.0000    0.0000 C   0  0  0  0  0  0  0  0  0  0  0  0
   -3.4641   -0.0000    0.0000 C   0  0  0  0  0  0  0  0  0  0  0  0
   -4.3301   -0.5000    0.0000 O   0  0  0  0  0  0  0  0  0  0  0  0
   -3.4641    1.0000    0.0000 O   0  0  0  0  0  0  0  0  0  0  0  0
    0.0000    0.0000    0.0000 C   0  0  0  0  0  0  0  0  0  0  0  0
   -0.0000    1.0000    0.0000 I   0  0  0  0  0  0  0  0  0  0  0  0
  1  2  1  0  0  0  0
  2  3  1  0  0  0  0
  3  4  1  0  0  0  0
  4  5  2  0  0  0  0
  4  6  1  0  0  0  0
  6  7  1  0  0  0  0
  7 21  1  0  0  0  0
  7  8  2  0  0  0  0
  8  9  1  0  0  0  0
  8 10  1  0  0  0  0
 10 11  2  0  0  0  0
 11 12  1  0  0  0  0
 11 13  1  0  0  0  0
 13 14  1  0  0  0  0
 13 21  2  0  0  0  0
 14 15  1  0  0  0  0
 15 16  1  0  0  0  0
 15 18  1  0  0  0  0
 16 17  1  0  0  0  0
 18 19  2  0  0  0  0
 18 20  1  0  0  0  0
 21 22  1  0  0  0  0
M  END
$$$$
